***** HSPICE -- F-2011.09 32-BIT (Sep  5 2011) winnt ******
 Input File: test.sp
 lic:
 lic: FLEXlm: v10.8
 lic: USER:   86184                HOSTNAME: PC2line
 lic: HOSTID: "e86a64c8f38a 00ff97c2fd8f 00ff04ecf589 485f9955e58d 485f9955e58d
 lic: Using FLEXlm license file:
 lic: D:\Matlab\licenses\license_PC2line_40623085_R2019b.lic
 lic: Checkout 1 hspice
 lic: License/Maintenance for hspice will expire on 31-dec-2030/2030.12
 lic: NODE LOCKED license on hostid "e86a64c8f38a 00ff97c2fd8f 00ff04ecf589 485f
 lic:
 init: begin read circuit files,  cpu clock=  8.56E-01
       option search   = D:\HSPICE\hspice\PARTS\behave\
       option search   = D:\HSPICE\hspice\PARTS\behave\
       option search   = D:\HSPICE\hspice\PARTS\AD\
       option search   = D:\HSPICE\hspice\PARTS\XILINX\
       option search   = D:\HSPICE\hspice\PARTS\TLINE\
       option search   = D:\HSPICE\hspice\PARTS\TI\
       option search   = D:\HSPICE\hspice\PARTS\SIGNET\
       option search   = D:\HSPICE\hspice\PARTS\PCI\
       option search   = D:\HSPICE\hspice\PARTS\LIN_TECH\
       option search   = D:\HSPICE\hspice\PARTS\FET\
       option search   = D:\HSPICE\hspice\PARTS\DIO\
       option search   = D:\HSPICE\hspice\PARTS\COMLINE\
       option search   = D:\HSPICE\hspice\PARTS\BURR_BRN\
       option search   = D:\HSPICE\hspice\PARTS\BJT\
       option search   = D:\HSPICE\hspice\PARTS\behave\
       option search   = D:\HSPICE\hspice\PARTS\AD\
       option post     =     2.00
       option runlvl
       option post
       option accura
       option probe
 init: end read circuit files,  cpu clock=  9.15E-01 memory=    150 kb
 init: begin check errors,  cpu clock=  9.15E-01
 init: end check errors,  cpu clock=  9.24E-01 memory=    168 kb
 init: begin setup matrix, pivot=     0 cpu clock=  9.24E-01
       establish matrix -- done,  cpu clock=  9.35E-01 memory=    170 kb
       re-order matrix -- done,  cpu clock=  9.35E-01 memory=    170 kb
 init: end setup matrix,  cpu clock=  9.35E-01 memory=    182 kb
 output: test.sw0
 sweep: dc dc0    begin, #sweeps=1101 cpu clock=  9.45E-01
 sweep: dc dc0    end,  cpu clock=  9.60E-01 memory=    182 kb
>info:         ***** hspice job concluded
 lic: Release hspice token(s)
