***** HSPICE -- F-2011.09 32-BIT (Sep  5 2011) winnt ******
 Input File: test.sp
 lic:
 lic: FLEXlm: v10.8
 lic: USER:   86184                HOSTNAME: PC2line
 lic: HOSTID: "e86a64c8f38a 00ff119b607f 485f9955e58d 485f9955e58d ca5f9955e58d"
 lic: Using FLEXlm license file:
 lic: D:\HSPICE\license1.dat
 lic: Checkout 1 hspice
 lic: License/Maintenance for hspice will expire on 31-dec-2030/2030.12
 lic: NODE LOCKED license on hostid "e86a64c8f38a 00ff119b607f 485f9955e58d 485f
 lic:
 init: begin read circuit files,  cpu clock=  9.71E-01
       option search   = D:\HSPICE\hspice\PARTS\behave\
       option search   = D:\HSPICE\hspice\PARTS\behave\
       option search   = D:\HSPICE\hspice\PARTS\AD\
       option search   = D:\HSPICE\hspice\PARTS\XILINX\
       option search   = D:\HSPICE\hspice\PARTS\TLINE\
       option search   = D:\HSPICE\hspice\PARTS\TI\
       option search   = D:\HSPICE\hspice\PARTS\SIGNET\
       option search   = D:\HSPICE\hspice\PARTS\PCI\
       option search   = D:\HSPICE\hspice\PARTS\LIN_TECH\
       option search   = D:\HSPICE\hspice\PARTS\FET\
       option search   = D:\HSPICE\hspice\PARTS\DIO\
       option search   = D:\HSPICE\hspice\PARTS\COMLINE\
       option search   = D:\HSPICE\hspice\PARTS\BURR_BRN\
       option search   = D:\HSPICE\hspice\PARTS\BJT\
       option search   = D:\HSPICE\hspice\PARTS\behave\
       option search   = D:\HSPICE\hspice\PARTS\AD\
       option post     =     2.00
       option runlvl
       option post
       option accura
       option probe
 init: end read circuit files,  cpu clock=  1.08E+00 memory=    150 kb
 init: begin check errors,  cpu clock=  1.08E+00
 init: end check errors,  cpu clock=  1.10E+00 memory=    150 kb
 init: begin setup matrix, pivot=     0 cpu clock=  1.10E+00
       establish matrix -- done,  cpu clock=  1.11E+00 memory=    154 kb
       re-order matrix -- done,  cpu clock=  1.12E+00 memory=    154 kb
 init: end setup matrix,  cpu clock=  1.12E+00 memory=    167 kb
 dcop: begin dcop,  cpu clock=  1.12E+00
 dcop: end dcop,  cpu clock=  1.13E+00 memory=    167 kb  tot_iter=      19
 output: test.tr0
 sweep: tran tran0    begin, stop_t=  5.00E-07 #sweeps=**** cpu clock=  1.15E+00
 tran: time= 5.0100E-08 tot_iter=     106 conv_iter=      39 cpu clock= 1.15E+00
 tran: time= 1.0005E-07 tot_iter=     258 conv_iter=     101 cpu clock= 1.16E+00
 tran: time= 1.5000E-07 tot_iter=     353 conv_iter=     135 cpu clock= 1.17E+00
 tran: time= 2.0005E-07 tot_iter=     509 conv_iter=     191 cpu clock= 1.18E+00
 tran: time= 2.5010E-07 tot_iter=     740 conv_iter=     276 cpu clock= 1.18E+00
 tran: time= 3.0000E-07 tot_iter=     807 conv_iter=     302 cpu clock= 1.19E+00
 tran: time= 3.5010E-07 tot_iter=     919 conv_iter=     342 cpu clock= 1.20E+00
 tran: time= 4.0005E-07 tot_iter=    1061 conv_iter=     399 cpu clock= 1.21E+00
 tran: time= 4.5000E-07 tot_iter=    1159 conv_iter=     433 cpu clock= 1.21E+00
 tran: time= 5.0000E-07 tot_iter=    1327 conv_iter=     493 cpu clock= 1.22E+00
 sweep: tran tran0    end,  cpu clock=  1.23E+00 memory=    168 kb
>info:         ***** hspice job concluded
 lic: Release hspice token(s)
