***** HSPICE -- F-2011.09 32-BIT (Sep  5 2011) winnt ******
 Input File: rlgc2sp.sp
 lic:
 lic: FLEXlm: v10.8
 lic: USER:   86184                HOSTNAME: PC2line
 lic: HOSTID: "e86a64c8f38a 00ff97c2fd8f 00155d5a0a25 00fff9e0e6f8 485f9955e58d
 lic: Using FLEXlm license file:
 lic: D:\Matlab\licenses\license_PC2line_40623085_R2019b.lic
 lic: Checkout 1 hspice
 lic: License/Maintenance for hspice will expire on 31-dec-2030/2030.12
 lic: NODE LOCKED license on hostid "e86a64c8f38a 00ff97c2fd8f 00155d5a0a25 00ff
 lic:
 init: begin read circuit files,  cpu clock=  4.31E+00
       option search   = D:\HSPICE\hspice\PARTS\behave\
       option search   = D:\HSPICE\hspice\PARTS\behave\
       option search   = D:\HSPICE\hspice\PARTS\AD\
       option search   = D:\HSPICE\hspice\PARTS\XILINX\
       option search   = D:\HSPICE\hspice\PARTS\TLINE\
       option search   = D:\HSPICE\hspice\PARTS\TI\
       option search   = D:\HSPICE\hspice\PARTS\SIGNET\
       option search   = D:\HSPICE\hspice\PARTS\PCI\
       option search   = D:\HSPICE\hspice\PARTS\LIN_TECH\
       option search   = D:\HSPICE\hspice\PARTS\FET\
       option search   = D:\HSPICE\hspice\PARTS\DIO\
       option search   = D:\HSPICE\hspice\PARTS\COMLINE\
       option search   = D:\HSPICE\hspice\PARTS\BURR_BRN\
       option search   = D:\HSPICE\hspice\PARTS\BJT\
       option search   = D:\HSPICE\hspice\PARTS\behave\
       option search   = D:\HSPICE\hspice\PARTS\AD\
       option post     =     2.00
       option runlvl
       option post
       option accura
       option probe
 init: end read circuit files,  cpu clock=  4.53E+00 memory=  11881 kb
 init: begin check errors,  cpu clock=  4.53E+00
 init: end check errors,  cpu clock=  4.77E+00 memory=  21887 kb
 init: begin setup matrix, pivot=     0 cpu clock=  4.77E+00
       establish matrix -- done,  cpu clock=  4.80E+00 memory=  22547 kb
       re-order matrix -- done,  cpu clock=  5.23E+00 memory=  22547 kb
 init: end setup matrix,  cpu clock=  5.24E+00 memory=  28687 kb
 dcop: begin dcop,  cpu clock=  5.24E+00
 dcop: end dcop,  cpu clock=  5.60E+00 memory=  28687 kb  tot_iter=       4
 output: rlgc2sp.tr0
 sweep: tran tran0    begin, stop_t=  1.50E-08 #sweeps= 751 cpu clock=  5.61E+00
 tran: time= 1.5153E-09 tot_iter=      12 conv_iter=       6 cpu clock= 5.70E+00
 tran: time= 3.0153E-09 tot_iter=      16 conv_iter=       8 cpu clock= 5.72E+00
 tran: time= 4.5153E-09 tot_iter=      20 conv_iter=      10 cpu clock= 5.76E+00
 tran: time= 6.1695E-09 tot_iter=      89 conv_iter=      34 cpu clock= 6.16E+00
 tran: time= 7.7164E-09 tot_iter=     101 conv_iter=      38 cpu clock= 6.24E+00
 tran: time= 9.0140E-09 tot_iter=     107 conv_iter=      40 cpu clock= 6.27E+00
 tran: time= 1.0502E-08 tot_iter=     158 conv_iter=      57 cpu clock= 6.54E+00
 tran: time= 1.2232E-08 tot_iter=     185 conv_iter=      66 cpu clock= 6.68E+00
 tran: time= 1.3908E-08 tot_iter=     194 conv_iter=      69 cpu clock= 6.74E+00
 tran: time= 1.5000E-08 tot_iter=     200 conv_iter=      71 cpu clock= 6.77E+00
 sweep: tran tran0    end,  cpu clock=  6.80E+00 memory=  28872 kb
>info:         ***** hspice job concluded
 lic: Release hspice token(s)
