 ****** HSPICE -- F-2011.09 32-BIT (Sep  5 2011) winnt ******                   
  Copyright (C) 2011 Synopsys, Inc. All Rights Reserved.                        
  Unpublished-rights reserved under US copyright laws.
  This program is protected by law and is subject to the
  terms and conditions of the license agreement from Synopsys.
  Use of this program is your acceptance to be bound by the
  license agreement. HSPICE is the trademark of Synopsys, Inc.
  Input File: rlgc2sp.sp                                                        
  Command line options: rlgc2sp.sp -o
  lic:  
  lic: FLEXlm: v10.8 
  lic: USER:   86184                HOSTNAME: PC2line 
  lic: HOSTID: "e86a64c8f38a 00ff97c2fd8f 00155d5a0a25 00fff9e0e6f8 485f9955e58d
  
  lic: Using FLEXlm license file: 
  lic: D:\Matlab\licenses\license_PC2line_40623085_R2019b.lic 
  lic: Checkout 1 hspice 
  lic: License/Maintenance for hspice will expire on 31-dec-2030/2030.12 
  lic: NODE LOCKED license on hostid "e86a64c8f38a 00ff97c2fd8f 00155d5a0a25 00f
 f
  lic:   
 Init: read install configuration file: D:\HSPICE\hspice\meta.cfg

 **warning**  runlvl smaller than 5, reset to 5  when accurate turned on

 **warning**  runlvl smaller than 5, reset to 5  when accurate turned on
1****** HSPICE -- F-2011.09 32-BIT (Sep  5 2011) winnt ******                   
 ******  
 #current calculation test

  ******  circuit name directory
 circuit number to circuit name directory
   number circuitname                     definition         multiplier
        0 main circuit
        1 xdie.                           powermodel         1.00 
  **info** (rlgc2sp.sp:43) DC voltage reset to initial transient source value              in source        0:vt                  new dc=  0.1000D+01
  
      
 *****************************************************************
 ******  option summary
 ******
 runlvl  = 5         bypass  = 2         
  Opening plot unit= 79
 file=rlgc2sp.pa0                                                              

1****** HSPICE -- F-2011.09 32-BIT (Sep  5 2011) winnt ******                   
 ******  
 #current calculation test

  ******  operating point information tnom=  25.000 temp=  25.000 *****
 ***** operating point status is voltage   simulation time is     0.     
    node    =voltage      node    =voltage      node    =voltage

 +0:vddbg0  =   5.8150m 0:vddbg1  =  13.7326m 0:vddbg10 =   3.3346m
 +0:vddbg11 =   7.1300m 0:vddbg12 =  18.3337m 0:vddbg13 =  44.4366m
 +0:vddbg14 =  65.0012m 0:vddbg15 =   2.4796m 0:vddbg16 =   4.9638m
 +0:vddbg17 =  11.8227m 0:vddbg18 =  22.7018m 0:vddbg19 =  26.7780m
 +0:vddbg2  =  39.7595m 0:vddbg20 =   1.8540m 0:vddbg21 =   3.4654m
 +0:vddbg22 =   7.7802m 0:vddbg23 =  12.5738m 0:vddbg24 =  12.9719m
 +0:vddbg25 =   1.4402m 0:vddbg26 =   2.5178m 0:vddbg27 =   5.2816m
 +0:vddbg28 =   7.4947m 0:vddbg29 =   7.1623m 0:vddbg3  = 122.2757m
 +0:vddbg30 =   1.1807m 0:vddbg31 =   1.9777m 0:vddbg32 =   3.9226m
 +0:vddbg33 =   5.2869m 0:vddbg34 =   4.7011m 0:vddbg4  =   1.0000 
 +0:vddbg5  =   4.4266m 0:vddbg6  =  10.0270m 0:vddbg7  =  27.9156m
 +0:vddbg8  =  80.2614m 0:vddbg9  = 182.4514m 0:vddsg0  =   8.0604m
 +0:vddsg1  =   9.5609m 0:vddsg12 =   8.9954m 0:vddsg13 =  10.5288m
 +0:vddsg14 =  14.0118m 0:vddsg15 =  20.0740m 0:vddsg16 =  30.7199m
 +0:vddsg17 =  43.2121m 0:vddsg2  =  12.8782m 0:vddsg24 =   8.1882m
 +0:vddsg25 =   9.5599m 0:vddsg26 =  12.5361m 0:vddsg27 =  18.5477m
 +0:vddsg28 =  26.1553m 0:vddsg29 =  33.9037m 0:vddsg3  =  18.6304m
 +0:vddsg36 =   8.0183m 0:vddsg37 =   9.0597m 0:vddsg38 =  11.6471m
 +0:vddsg39 =  16.0645m 0:vddsg4  =  29.4338m 0:vddsg40 =  21.9070m
 +0:vddsg41 =  28.9520m 0:vddsg48 =   7.0413m 0:vddsg49 =   8.0058m
 +0:vddsg5  =  41.3415m 0:vddsg50 =   9.9970m 0:vddsg51 =  12.9467m
 +0:vddsg52 =  17.2405m 0:vddsg53 =  21.4834m 0:vddsg60 =   5.6603m
 +0:vddsg61 =   6.5205m 0:vddsg62 =   8.1147m 0:vddsg63 =  10.1060m
 +0:vddsg64 =  13.5497m 0:vddsg65 =  15.7940m 0:vssbg0  =   0.     
 +0:vssbg1  =   0.      0:vssbg10 =   0.      0:vssbg11 =   0.     
 +0:vssbg12 =   0.      0:vssbg13 =   0.      0:vssbg14 =   0.     
 +0:vssbg15 =   0.      0:vssbg16 =   0.      0:vssbg17 =   0.     
 +0:vssbg18 =   0.      0:vssbg19 =   0.      0:vssbg2  =   0.     
 +0:vssbg20 =   0.      0:vssbg21 =   0.      0:vssbg22 =   0.     
 +0:vssbg23 =   0.      0:vssbg24 =   0.      0:vssbg25 =   0.     
 +0:vssbg26 =   0.      0:vssbg27 =   0.      0:vssbg28 =   0.     
 +0:vssbg29 =   0.      0:vssbg3  =   0.      0:vssbg30 =   0.     
 +0:vssbg31 =   0.      0:vssbg32 =   0.      0:vssbg33 =   0.     
 +0:vssbg34 =   0.      0:vssbg4  =   0.      0:vssbg5  =   0.     
 +0:vssbg6  =   0.      0:vssbg7  =   0.      0:vssbg8  =   0.     
 +0:vssbg9  =   0.      0:vsssg0  =  52.9374p 0:vsssg1  =  46.9717p
 +0:vsssg12 =  40.9317p 0:vsssg13 =  33.0247p 0:vsssg14 =  32.8215p
 +0:vsssg15 =  33.3148p 0:vsssg16 =  29.0485p 0:vsssg17 =  31.7288p
 +0:vsssg2  =  45.8580p 0:vsssg24 =  45.9612p 0:vsssg25 =  43.6563p
 +0:vsssg26 =  42.0808p 0:vsssg27 =  42.5996p 0:vsssg28 =  37.6554p
 +0:vsssg29 =  35.6258p 0:vsssg3  =  44.4968p 0:vsssg36 =  39.6125p
 +0:vsssg37 =  35.3913p 0:vsssg38 =  32.4396p 0:vsssg39 =  33.5589p
 +0:vsssg4  =  41.9901p 0:vsssg40 =  29.5217p 0:vsssg41 =  31.3821p
 +0:vsssg48 =  41.4139p 0:vsssg49 =  35.6750p 0:vsssg5  =  41.3791p
 +0:vsssg50 =  35.1340p 0:vsssg51 =  35.8572p 0:vsssg52 =  32.6893p
 +0:vsssg53 =  33.3230p 0:vsssg60 =  43.3105p 0:vsssg61 =  40.8127p
 +0:vsssg62 =  39.8721p 0:vsssg63 =  37.8388p 0:vsssg64 =  36.8163p
 +0:vsssg65 =  35.0697p 1:n1000   =  29.0485p 1:n10000  =  18.6304m
 +1:n10001  =  18.6304m 1:n10002  =  18.6304m 1:n10003  =  18.6304m
 +1:n10004  =  18.6304m 1:n10005  =  18.6304m 1:n10006  =  18.6304m
 +1:n10007  =  18.6304m 1:n10008  =  18.6304m 1:n10009  =  18.6304m
 +1:n1001   =  29.0485p 1:n10010  =  18.6304m 1:n10011  =  18.6304m
 +1:n10012  =  18.6304m 1:n10013  =  18.6304m 1:n10014  =  18.6304m
 +1:n10015  =  18.6304m 1:n10016  =  18.6304m 1:n10017  =  18.6304m
 +1:n10018  =  18.6304m 1:n10019  =  18.6304m 1:n1002   =  29.0485p
 +1:n10020  =  18.6304m 1:n10021  =  18.6304m 1:n10022  =  18.6304m
 +1:n10023  =  18.6304m 1:n10024  =  18.6304m 1:n10025  =  18.6304m
 +1:n10026  =  18.6304m 1:n10027  =  18.6304m 1:n10028  =  18.6304m
 +1:n10029  =  18.6304m 1:n1003   =  29.0485p 1:n10030  =  18.6304m
 +1:n10031  =  18.6304m 1:n10032  =  18.6304m 1:n10033  =  18.6304m
 +1:n10034  =  18.6304m 1:n10035  =  18.6304m 1:n10036  =  18.6304m
 +1:n10037  =  18.6304m 1:n10038  =  18.6304m 1:n10039  =  18.6304m
 +1:n1004   =  29.0485p 1:n10040  =  18.6304m 1:n10041  =  18.6304m
 +1:n10042  =  18.6304m 1:n10043  =  18.6304m 1:n10044  =  18.6304m
 +1:n10045  =  18.6304m 1:n10046  =  18.6304m 1:n10047  =  18.6304m
 +1:n10048  =  18.6304m 1:n10049  =  18.6304m 1:n1005   =  29.0485p
 +1:n10050  =  18.6304m 1:n10051  =  18.6304m 1:n10052  =  18.6304m
 +1:n10053  =  18.6304m 1:n10054  =  18.6304m 1:n10055  =  18.6304m
 +1:n10056  =  18.6304m 1:n10057  =  18.6304m 1:n10058  =  18.6304m
 +1:n10059  =  18.6304m 1:n1006   =  29.0485p 1:n10060  =  18.6304m
 +1:n10061  =  18.6304m 1:n10062  =  18.6304m 1:n10063  =  18.6304m
 +1:n10064  =  18.6304m 1:n10065  =  18.6304m 1:n10066  =  18.6304m
 +1:n10067  =  18.6304m 1:n10068  =  18.6304m 1:n10069  =  18.6304m
 +1:n1007   =  29.0485p 1:n10070  =  18.6304m 1:n10071  =  18.6304m
 +1:n10072  =  18.6304m 1:n10073  =  18.6304m 1:n10074  =  18.6304m
 +1:n10075  =  18.6304m 1:n10076  =  18.6304m 1:n10077  =  18.6304m
 +1:n10078  =  18.6304m 1:n10079  =  18.6304m 1:n1008   =  29.0485p
 +1:n10080  =  18.6304m 1:n10081  =  18.6304m 1:n10082  =  18.6304m
 +1:n10083  =  18.6304m 1:n10084  =  18.6304m 1:n10085  =  18.6304m
 +1:n10086  =  18.6304m 1:n10087  =  18.6304m 1:n10088  =  18.6304m
 +1:n10089  =  18.6304m 1:n1009   =  29.0485p 1:n10090  =  18.6304m
 +1:n10091  =  18.6304m 1:n10092  =  18.6304m 1:n10093  =  18.6304m
 +1:n10094  =  18.6304m 1:n10095  =  12.8782m 1:n10096  =  12.8782m
 +1:n10097  =  12.8782m 1:n10098  =  12.8782m 1:n10099  =  12.8782m
 +1:n1010   =  29.0485p 1:n10100  =  12.8782m 1:n10101  =  12.8782m
 +1:n10102  =  12.8782m 1:n10103  =  12.8782m 1:n10104  =  12.8782m
 +1:n10105  =  12.8782m 1:n10106  =  12.8782m 1:n10107  =  12.8782m
 +1:n10108  =  12.8782m 1:n10109  =  12.8782m 1:n1011   =  29.0485p
 +1:n10110  =  12.8782m 1:n10111  =  12.8782m 1:n10112  =  12.8782m
 +1:n10113  =  12.8782m 1:n10114  =  12.8782m 1:n10115  =  12.8782m
 +1:n10116  =  12.8782m 1:n10117  =  12.8782m 1:n10118  =  12.8782m
 +1:n10119  =  12.8782m 1:n1012   =  29.0485p 1:n10120  =  12.8782m
 +1:n10121  =  12.8782m 1:n10122  =  12.8782m 1:n10123  =  12.8782m
 +1:n10124  =  12.8782m 1:n10125  =  12.8782m 1:n10126  =  12.8782m
 +1:n10127  =  12.8782m 1:n10128  =  12.8782m 1:n10129  =  12.8782m
 +1:n1013   =  29.0485p 1:n10130  =  12.8782m 1:n10131  =  12.8782m
 +1:n10132  =  12.8782m 1:n10133  =  12.8782m 1:n10134  =  12.8782m
 +1:n10135  =  12.8782m 1:n10136  =  12.8782m 1:n10137  =  12.8782m
 +1:n10138  =  12.8782m 1:n10139  =  12.8782m 1:n1014   =  29.0485p
 +1:n10140  =  12.8782m 1:n10141  =  12.8782m 1:n10142  =  12.8782m
 +1:n10143  =  12.8782m 1:n10144  =  12.8782m 1:n10145  =  12.8782m
 +1:n10146  =  12.8782m 1:n10147  =  12.8782m 1:n10148  =  12.8782m
 +1:n10149  =  12.8782m 1:n1015   =  29.0485p 1:n10150  =  12.8782m
 +1:n10151  =  12.8782m 1:n10152  =  12.8782m 1:n10153  =  12.8782m
 +1:n10154  =  12.8782m 1:n10155  =  12.8782m 1:n10156  =  12.8782m
 +1:n10157  =  12.8782m 1:n10158  =  12.8782m 1:n10159  =  12.8782m
 +1:n1016   =  29.0485p 1:n10160  =  12.8782m 1:n10161  =  12.8782m
 +1:n10162  =  12.8782m 1:n10163  =  12.8782m 1:n10164  =  12.8782m
 +1:n10165  =  12.8782m 1:n10166  =  12.8782m 1:n10167  =  12.8782m
 +1:n10168  =  12.8782m 1:n10169  =  12.8782m 1:n1017   =  29.0485p
 +1:n10170  =  12.8782m 1:n10171  =  12.8782m 1:n10172  =  12.8782m
 +1:n10173  =  12.8782m 1:n10174  =  12.8782m 1:n10175  =  12.8782m
 +1:n10176  =  12.8782m 1:n10177  =  12.8782m 1:n10178  =  12.8782m
 +1:n10179  =  12.8782m 1:n1018   =  29.0485p 1:n10180  =  12.8782m
 +1:n10181  =  12.8782m 1:n10182  =  12.8782m 1:n10183  =  12.8782m
 +1:n10184  =  12.8782m 1:n10185  =  12.8782m 1:n10186  =  12.8782m
 +1:n10187  =  12.8782m 1:n10188  =  12.8782m 1:n10189  =  12.8782m
 +1:n1019   =  29.0485p 1:n10190  =  12.8782m 1:n10191  =  12.8782m
 +1:n10192  =  12.8782m 1:n10193  =  12.8782m 1:n10194  =  12.8782m
 +1:n10195  =  12.8782m 1:n10196  =  12.8782m 1:n10197  =  12.8782m
 +1:n10198  =  12.8782m 1:n10199  =  12.8782m 1:n1020   =  29.0485p
 +1:n10200  =  12.8782m 1:n10201  =  12.8782m 1:n10202  =  12.8782m
 +1:n10203  =  12.8782m 1:n10204  =  12.8782m 1:n10205  =  12.8782m
 +1:n10206  =  12.8782m 1:n10207  =  12.8782m 1:n10208  =  12.8782m
 +1:n10209  =  12.8782m 1:n1021   =  29.0485p 1:n10210  =  12.8782m
 +1:n10211  =  12.8782m 1:n10212  =  12.8782m 1:n10213  =  12.8782m
 +1:n10214  =  12.8782m 1:n10215  =  12.8782m 1:n10216  =  12.8782m
 +1:n10217  =  12.8782m 1:n10218  =  12.8782m 1:n10219  =  12.8782m
 +1:n1022   =  29.0485p 1:n10220  =  12.8782m 1:n10221  =  12.8782m
 +1:n10222  =  12.8782m 1:n10223  =  12.8782m 1:n10224  =  12.8782m
 +1:n10225  =  12.8782m 1:n10226  =  12.8782m 1:n10227  =  12.8782m
 +1:n10228  =  12.8782m 1:n10229  =  12.8782m 1:n1023   =  29.0485p
 +1:n10230  =  12.8782m 1:n10231  =  12.8782m 1:n10232  =  12.8782m
 +1:n10233  =  12.8782m 1:n10234  =  12.8782m 1:n10235  =  12.8782m
 +1:n10236  =  12.8782m 1:n10237  =  12.8782m 1:n10238  =  12.8782m
 +1:n10239  =  12.8782m 1:n1024   =  29.0485p 1:n10240  =  12.8782m
 +1:n10241  =  12.8782m 1:n10242  =  12.8782m 1:n10243  =  12.8782m
 +1:n10244  =  12.8782m 1:n10245  =  12.8782m 1:n10246  =  12.8782m
 +1:n10247  =  12.8782m 1:n10248  =  12.8782m 1:n10249  =  12.8782m
 +1:n1025   =  29.0485p 1:n10250  =  12.8782m 1:n10251  =  12.8782m
 +1:n10252  =  12.8782m 1:n10253  =  12.8782m 1:n10254  =  12.8782m
 +1:n10255  =  12.8782m 1:n10256  =  12.8782m 1:n10257  =  12.8782m
 +1:n10258  =  12.8782m 1:n10259  =  12.8782m 1:n1026   =  29.0485p
 +1:n10260  =  12.8782m 1:n10261  =  12.8782m 1:n10262  =  12.8782m
 +1:n10263  =  12.8782m 1:n10264  =  12.8782m 1:n10265  =  12.8782m
 +1:n10266  =  12.8782m 1:n10267  =  12.8782m 1:n10268  =  12.8782m
 +1:n10269  =  12.8782m 1:n1027   =  29.0485p 1:n10270  =  12.8782m
 +1:n10271  =  12.8782m 1:n10272  =  12.8782m 1:n10273  =  12.8782m
 +1:n10274  =  12.8782m 1:n10275  =  12.8782m 1:n10276  =  12.8782m
 +1:n10277  =  12.8782m 1:n10278  =  12.8782m 1:n10279  =  12.8782m
 +1:n1028   =  29.0485p 1:n10280  =  12.8782m 1:n10281  =  12.8782m
 +1:n10282  =  12.8782m 1:n10283  =  12.8782m 1:n10284  =  12.8782m
 +1:n10285  =  12.8782m 1:n10286  =  12.8782m 1:n10287  =  12.8782m
 +1:n10288  =  12.8782m 1:n10289  =  12.8782m 1:n1029   =  29.0485p
 +1:n10290  =  12.8782m 1:n10291  =  12.8782m 1:n10292  =   9.5609m
 +1:n10293  =   9.5609m 1:n10294  =   9.5609m 1:n10295  =   9.5609m
 +1:n10296  =   9.5609m 1:n10297  =   9.5609m 1:n10298  =   9.5609m
 +1:n10299  =   9.5609m 1:n1030   =  29.0485p 1:n10300  =   9.5609m
 +1:n10301  =   9.5609m 1:n10302  =   9.5609m 1:n10303  =   9.5609m
 +1:n10304  =   9.5609m 1:n10305  =   9.5609m 1:n10306  =   9.5609m
 +1:n10307  =   9.5609m 1:n10308  =   9.5609m 1:n10309  =   9.5609m
 +1:n1031   =  29.0485p 1:n10310  =   9.5609m 1:n10311  =   9.5609m
 +1:n10312  =   9.5609m 1:n10313  =   9.5609m 1:n10314  =   9.5609m
 +1:n10315  =   9.5609m 1:n10316  =   9.5609m 1:n10317  =   9.5609m
 +1:n10318  =   9.5609m 1:n10319  =   9.5609m 1:n1032   =  29.0485p
 +1:n10320  =   9.5609m 1:n10321  =   9.5609m 1:n10322  =   9.5609m
 +1:n10323  =   9.5609m 1:n10324  =   9.5609m 1:n10325  =   9.5609m
 +1:n10326  =   9.5609m 1:n10327  =   9.5609m 1:n10328  =   9.5609m
 +1:n10329  =   9.5609m 1:n1033   =  29.0485p 1:n10330  =   9.5609m
 +1:n10331  =   9.5609m 1:n10332  =   9.5609m 1:n10333  =   9.5609m
 +1:n10334  =   9.5609m 1:n10335  =   9.5609m 1:n10336  =   9.5609m
 +1:n10337  =   9.5609m 1:n10338  =   9.5609m 1:n10339  =   9.5609m
 +1:n1034   =  29.0485p 1:n10340  =   9.5609m 1:n10341  =   9.5609m
 +1:n10342  =   9.5609m 1:n10343  =   9.5609m 1:n10344  =   9.5609m
 +1:n10345  =   9.5609m 1:n10346  =   9.5609m 1:n10347  =   9.5609m
 +1:n10348  =   9.5609m 1:n10349  =   9.5609m 1:n1035   =  29.0485p
 +1:n10350  =   9.5609m 1:n10351  =   9.5609m 1:n10352  =   9.5609m
 +1:n10353  =   9.5609m 1:n10354  =   9.5609m 1:n10355  =   9.5609m
 +1:n10356  =   9.5609m 1:n10357  =   9.5609m 1:n10358  =   9.5609m
 +1:n10359  =   9.5609m 1:n1036   =  29.0485p 1:n10360  =   9.5609m
 +1:n10361  =   9.5609m 1:n10362  =   9.5609m 1:n10363  =   9.5609m
 +1:n10364  =   9.5609m 1:n10365  =   9.5609m 1:n10366  =   9.5609m
 +1:n10367  =   9.5609m 1:n10368  =   9.5609m 1:n10369  =   9.5609m
 +1:n1037   =  29.0485p 1:n10370  =   9.5609m 1:n10371  =   9.5609m
 +1:n10372  =   9.5609m 1:n10373  =   9.5609m 1:n10374  =   9.5609m
 +1:n10375  =   9.5609m 1:n10376  =   9.5609m 1:n10377  =   9.5609m
 +1:n10378  =   9.5609m 1:n10379  =   9.5609m 1:n1038   =  29.0485p
 +1:n10380  =   9.5609m 1:n10381  =   9.5609m 1:n10382  =   9.5609m
 +1:n10383  =   9.5609m 1:n10384  =   9.5609m 1:n10385  =   9.5609m
 +1:n10386  =   9.5609m 1:n10387  =   9.5609m 1:n10388  =   9.5609m
 +1:n10389  =   9.5609m 1:n1039   =  29.0485p 1:n10390  =   9.5609m
 +1:n10391  =   9.5609m 1:n10392  =   9.5609m 1:n10393  =   9.5609m
 +1:n10394  =   9.5609m 1:n10395  =   9.5609m 1:n10396  =   9.5609m
 +1:n10397  =   9.5609m 1:n10398  =   9.5609m 1:n10399  =   9.5609m
 +1:n1040   =  29.0485p 1:n10400  =   9.5609m 1:n10401  =   9.5609m
 +1:n10402  =   9.5609m 1:n10403  =   9.5609m 1:n10404  =   9.5609m
 +1:n10405  =   9.5609m 1:n10406  =   9.5609m 1:n10407  =   9.5609m
 +1:n10408  =   9.5609m 1:n10409  =   9.5609m 1:n1041   =  29.0485p
 +1:n10410  =   9.5609m 1:n10411  =   9.5609m 1:n10412  =   9.5609m
 +1:n10413  =   9.5609m 1:n10414  =   9.5609m 1:n10415  =   9.5609m
 +1:n10416  =   9.5609m 1:n10417  =   9.5609m 1:n10418  =   9.5609m
 +1:n10419  =   9.5609m 1:n1042   =  29.0485p 1:n10420  =   9.5609m
 +1:n10421  =   9.5609m 1:n10422  =   9.5609m 1:n10423  =   9.5609m
 +1:n10424  =   9.5609m 1:n10425  =   9.5609m 1:n10426  =   9.5609m
 +1:n10427  =   9.5609m 1:n10428  =   9.5609m 1:n10429  =   9.5609m
 +1:n1043   =  29.0485p 1:n10430  =   9.5609m 1:n10431  =   9.5609m
 +1:n10432  =   9.5609m 1:n10433  =   9.5609m 1:n10434  =   9.5609m
 +1:n10435  =   9.5609m 1:n10436  =   9.5609m 1:n10437  =   9.5609m
 +1:n10438  =   9.5609m 1:n10439  =   9.5609m 1:n1044   =  29.0485p
 +1:n10440  =   9.5609m 1:n10441  =   9.5609m 1:n10442  =   9.5609m
 +1:n10443  =   9.5609m 1:n10444  =   9.5609m 1:n10445  =   9.5609m
 +1:n10446  =   9.5609m 1:n10447  =   9.5609m 1:n10448  =   9.5609m
 +1:n10449  =   9.5609m 1:n1045   =  29.0485p 1:n10450  =   9.5609m
 +1:n10451  =   9.5609m 1:n10452  =   9.5609m 1:n10453  =   9.5609m
 +1:n10454  =   9.5609m 1:n10455  =   9.5609m 1:n10456  =   9.5609m
 +1:n10457  =   9.5609m 1:n10458  =   9.5609m 1:n10459  =   9.5609m
 +1:n1046   =  29.0485p 1:n10460  =   9.5609m 1:n10461  =   9.5609m
 +1:n10462  =   9.5609m 1:n10463  =   9.5609m 1:n10464  =   9.5609m
 +1:n10465  =   9.5609m 1:n10466  =   9.5609m 1:n10467  =   9.5609m
 +1:n10468  =   9.5609m 1:n10469  =   9.5609m 1:n1047   =  29.0485p
 +1:n10470  =   9.5609m 1:n10471  =   9.5609m 1:n10472  =   8.0604m
 +1:n10473  =   8.0604m 1:n10474  =   8.0604m 1:n10475  =   8.0604m
 +1:n10476  =   8.0604m 1:n10477  =   8.0604m 1:n10478  =   8.0604m
 +1:n10479  =   8.0604m 1:n1048   =  29.0485p 1:n10480  =   8.0604m
 +1:n10481  =   8.0604m 1:n10482  =   8.0604m 1:n10483  =   8.0604m
 +1:n10484  =   8.0604m 1:n10485  =   8.0604m 1:n10486  =   8.0604m
 +1:n10487  =   8.0604m 1:n10488  =   8.0604m 1:n10489  =   8.0604m
 +1:n1049   =  29.0485p 1:n10490  =   8.0604m 1:n10491  =   8.0604m
 +1:n10492  =   8.0604m 1:n10493  =   8.0604m 1:n10494  =   8.0604m
 +1:n10495  =   8.0604m 1:n10496  =   8.0604m 1:n10497  =   8.0604m
 +1:n10498  =   8.0604m 1:n10499  =   8.0604m 1:n1050   =  29.0485p
 +1:n10500  =   8.0604m 1:n10501  =   8.0604m 1:n10502  =   8.0604m
 +1:n10503  =   8.0604m 1:n10504  =   8.0604m 1:n10505  =   8.0604m
 +1:n10506  =   8.0604m 1:n10507  =   8.0604m 1:n10508  =   8.0604m
 +1:n10509  =   8.0604m 1:n1051   =  29.0485p 1:n10510  =   8.0604m
 +1:n10511  =   8.0604m 1:n10512  =   8.0604m 1:n10513  =   8.0604m
 +1:n10514  =   8.0604m 1:n10515  =   8.0604m 1:n10516  =   8.0604m
 +1:n10517  =   8.0604m 1:n10518  =   8.0604m 1:n10519  =   8.0604m
 +1:n1052   =  29.0485p 1:n10520  =   8.0604m 1:n10521  =   8.0604m
 +1:n10522  =   8.0604m 1:n10523  =   8.0604m 1:n10524  =   8.0604m
 +1:n10525  =   8.0604m 1:n10526  =   8.0604m 1:n10527  =   8.0604m
 +1:n10528  =   8.0604m 1:n10529  =   8.0604m 1:n1053   =  29.0485p
 +1:n10530  =   8.0604m 1:n10531  =   8.0604m 1:n10532  =   8.0604m
 +1:n10533  =   8.0604m 1:n10534  =   8.0604m 1:n10535  =   8.0604m
 +1:n10536  =   8.0604m 1:n10537  =   8.0604m 1:n10538  =   8.0604m
 +1:n10539  =   8.0604m 1:n1054   =  29.0485p 1:n10540  =   8.0604m
 +1:n10541  =   8.0604m 1:n10542  =   8.0604m 1:n10543  =   8.0604m
 +1:n10544  =   8.0604m 1:n10545  =   8.0604m 1:n10546  =   8.0604m
 +1:n10547  =   8.0604m 1:n10548  =   8.0604m 1:n10549  =   8.0604m
 +1:n1055   =  29.0485p 1:n10550  =   8.0604m 1:n10551  =   8.0604m
 +1:n10552  =   8.0604m 1:n10553  =   8.0604m 1:n10554  =   8.0604m
 +1:n10555  =   8.0604m 1:n10556  =   8.0604m 1:n10557  =   8.0604m
 +1:n10558  =   8.0604m 1:n10559  =   8.0604m 1:n1056   =  29.0485p
 +1:n10560  =   8.0604m 1:n10561  =   8.0604m 1:n10562  =   8.0604m
 +1:n10563  =   8.0604m 1:n10564  =   8.0604m 1:n10565  =   8.0604m
 +1:n10566  =   8.0604m 1:n10567  =   8.0604m 1:n10568  =   8.0604m
 +1:n10569  =   8.0604m 1:n1057   =  29.0485p 1:n10570  =   8.0604m
 +1:n10571  =   8.0604m 1:n10572  =   8.0604m 1:n10573  =   8.0604m
 +1:n10574  =   8.0604m 1:n10575  =   8.0604m 1:n10576  =   8.0604m
 +1:n10577  =   8.0604m 1:n10578  =   8.0604m 1:n10579  =   8.0604m
 +1:n1058   =  29.0485p 1:n10580  =   8.0604m 1:n10581  =   8.0604m
 +1:n10582  =   8.0604m 1:n10583  =   8.0604m 1:n10584  =   8.0604m
 +1:n10585  =   8.0604m 1:n10586  =   8.0604m 1:n10587  =   8.0604m
 +1:n10588  =   8.0604m 1:n10589  =   8.0604m 1:n1059   =  29.0485p
 +1:n10590  =   8.0604m 1:n10591  =   8.0604m 1:n10592  =   8.0604m
 +1:n10593  =   8.0604m 1:n10594  =   8.0604m 1:n10595  =   8.0604m
 +1:n10596  =   8.0604m 1:n10597  =   8.0604m 1:n10598  =   8.0604m
 +1:n10599  =   8.0604m 1:n1060   =  29.0485p 1:n10600  =   8.0604m
 +1:n10601  =   8.0604m 1:n10602  =   8.0604m 1:n10603  =   8.0604m
 +1:n10604  =   8.0604m 1:n10605  =   8.0604m 1:n10606  =   8.0604m
 +1:n10607  =   8.0604m 1:n10608  =   8.0604m 1:n10609  =   8.0604m
 +1:n1061   =  29.0485p 1:n10610  =   8.0604m 1:n10611  =   8.0604m
 +1:n10612  =   8.0604m 1:n10613  =   8.0604m 1:n10614  =   8.0604m
 +1:n10615  =   8.0604m 1:n10616  =   8.0604m 1:n10617  =   8.0604m
 +1:n10618  =   8.0604m 1:n10619  =   8.0604m 1:n1062   =  29.0485p
 +1:n10620  =   8.0604m 1:n10621  =   8.0604m 1:n10622  =   8.0604m
 +1:n10623  =   8.0604m 1:n10624  =   8.0604m 1:n10625  =   8.0604m
 +1:n10626  =   8.0604m 1:n10627  =   8.0604m 1:n10628  =   8.0604m
 +1:n10629  =   8.0604m 1:n1063   =  29.0485p 1:n10630  =   8.0604m
 +1:n10631  =   8.0604m 1:n10632  =   4.7011m 1:n10633  =   4.7011m
 +1:n10634  =   4.7011m 1:n10635  =   4.7011m 1:n10636  =   4.7011m
 +1:n10637  =   4.7011m 1:n10638  =   4.7011m 1:n10639  =   4.7011m
 +1:n1064   =  29.0485p 1:n10640  =   4.7011m 1:n10641  =   4.7011m
 +1:n10642  =   4.7011m 1:n10643  =   4.7011m 1:n10644  =   4.7011m
 +1:n10645  =   4.7011m 1:n10646  =   4.7011m 1:n10647  =   4.7011m
 +1:n10648  =   4.7011m 1:n10649  =   4.7011m 1:n1065   =  29.0485p
 +1:n10650  =   4.7011m 1:n10651  =   4.7011m 1:n10652  =   4.7011m
 +1:n10653  =   4.7011m 1:n10654  =   4.7011m 1:n10655  =   4.7011m
 +1:n10656  =   4.7011m 1:n10657  =   4.7011m 1:n10658  =   4.7011m
 +1:n10659  =   4.7011m 1:n1066   =  29.0485p 1:n10660  =   4.7011m
 +1:n10661  =   4.7011m 1:n10662  =   4.7011m 1:n10663  =   4.7011m
 +1:n10664  =   4.7011m 1:n10665  =   4.7011m 1:n10666  =   4.7011m
 +1:n10667  =   4.7011m 1:n10668  =   4.7011m 1:n10669  =   4.7011m
 +1:n1067   =  29.0485p 1:n10670  =   4.7011m 1:n10671  =   4.7011m
 +1:n10672  =   4.7011m 1:n10673  =   4.7011m 1:n10674  =   4.7011m
 +1:n10675  =   4.7011m 1:n10676  =   4.7011m 1:n10677  =   4.7011m
 +1:n10678  =   4.7011m 1:n10679  =   4.7011m 1:n1068   =  33.3148p
 +1:n10680  =   4.7011m 1:n10681  =   4.7011m 1:n10682  =   4.7011m
 +1:n10683  =   4.7011m 1:n10684  =   4.7011m 1:n10685  =   4.7011m
 +1:n10686  =   4.7011m 1:n10687  =   4.7011m 1:n10688  =   4.7011m
 +1:n10689  =   4.7011m 1:n1069   =  33.3148p 1:n10690  =   4.7011m
 +1:n10691  =   4.7011m 1:n10692  =   4.7011m 1:n10693  =   4.7011m
 +1:n10694  =   4.7011m 1:n10695  =   4.7011m 1:n10696  =   4.7011m
 +1:n10697  =   4.7011m 1:n10698  =   4.7011m 1:n10699  =   4.7011m
 +1:n1070   =  33.3148p 1:n10700  =   4.7011m 1:n10701  =   4.7011m
 +1:n10702  =   4.7011m 1:n10703  =   4.7011m 1:n10704  =   4.7011m
 +1:n10705  =   4.7011m 1:n10706  =   4.7011m 1:n10707  =   4.7011m
 +1:n10708  =   4.7011m 1:n10709  =   4.7011m 1:n1071   =  33.3148p
 +1:n10710  =   4.7011m 1:n10711  =   4.7011m 1:n10712  =   4.7011m
 +1:n10713  =   4.7011m 1:n10714  =   4.7011m 1:n10715  =   4.7011m
 +1:n10716  =   4.7011m 1:n10717  =   4.7011m 1:n10718  =   4.7011m
 +1:n10719  =   4.7011m 1:n1072   =  33.3148p 1:n10720  =   4.7011m
 +1:n10721  =   4.7011m 1:n10722  =   4.7011m 1:n10723  =   4.7011m
 +1:n10724  =   4.7011m 1:n10725  =   4.7011m 1:n10726  =   4.7011m
 +1:n10727  =   4.7011m 1:n10728  =   4.7011m 1:n10729  =   4.7011m
 +1:n1073   =  33.3148p 1:n10730  =   4.7011m 1:n10731  =   4.7011m
 +1:n10732  =   4.7011m 1:n10733  =   4.7011m 1:n10734  =   4.7011m
 +1:n10735  =   4.7011m 1:n10736  =   4.7011m 1:n10737  =   4.7011m
 +1:n10738  =   4.7011m 1:n10739  =   4.7011m 1:n1074   =  33.3148p
 +1:n10740  =   4.7011m 1:n10741  =   4.7011m 1:n10742  =   4.7011m
 +1:n10743  =   4.7011m 1:n10744  =   4.7011m 1:n10745  =   4.7011m
 +1:n10746  =   4.7011m 1:n10747  =   4.7011m 1:n10748  =   4.7011m
 +1:n10749  =   4.7011m 1:n1075   =  33.3148p 1:n10750  =   4.7011m
 +1:n10751  =   4.7011m 1:n10752  =   4.7011m 1:n10753  =   4.7011m
 +1:n10754  =   5.2869m 1:n10755  =   5.2869m 1:n10756  =   5.2869m
 +1:n10757  =   5.2869m 1:n10758  =   5.2869m 1:n10759  =   5.2869m
 +1:n1076   =  33.3148p 1:n10760  =   5.2869m 1:n10761  =   5.2869m
 +1:n10762  =   5.2869m 1:n10763  =   5.2869m 1:n10764  =   5.2869m
 +1:n10765  =   5.2869m 1:n10766  =   5.2869m 1:n10767  =   5.2869m
 +1:n10768  =   5.2869m 1:n10769  =   5.2869m 1:n1077   =  33.3148p
 +1:n10770  =   5.2869m 1:n10771  =   5.2869m 1:n10772  =   5.2869m
 +1:n10773  =   5.2869m 1:n10774  =   5.2869m 1:n10775  =   5.2869m
 +1:n10776  =   5.2869m 1:n10777  =   5.2869m 1:n10778  =   5.2869m
 +1:n10779  =   5.2869m 1:n1078   =  33.3148p 1:n10780  =   5.2869m
 +1:n10781  =   5.2869m 1:n10782  =   5.2869m 1:n10783  =   5.2869m
 +1:n10784  =   5.2869m 1:n10785  =   5.2869m 1:n10786  =   5.2869m
 +1:n10787  =   5.2869m 1:n10788  =   5.2869m 1:n10789  =   5.2869m
 +1:n1079   =  33.3148p 1:n10790  =   5.2869m 1:n10791  =   5.2869m
 +1:n10792  =   5.2869m 1:n10793  =   5.2869m 1:n10794  =   5.2869m
 +1:n10795  =   5.2869m 1:n10796  =   5.2869m 1:n10797  =   5.2869m
 +1:n10798  =   5.2869m 1:n10799  =   5.2869m 1:n1080   =  33.3148p
 +1:n10800  =   5.2869m 1:n10801  =   5.2869m 1:n10802  =   5.2869m
 +1:n10803  =   5.2869m 1:n10804  =   5.2869m 1:n10805  =   5.2869m
 +1:n10806  =   5.2869m 1:n10807  =   5.2869m 1:n10808  =   5.2869m
 +1:n10809  =   5.2869m 1:n1081   =  33.3148p 1:n10810  =   5.2869m
 +1:n10811  =   5.2869m 1:n10812  =   5.2869m 1:n10813  =   5.2869m
 +1:n10814  =   5.2869m 1:n10815  =   5.2869m 1:n10816  =   5.2869m
 +1:n10817  =   5.2869m 1:n10818  =   5.2869m 1:n10819  =   5.2869m
 +1:n1082   =  33.3148p 1:n10820  =   5.2869m 1:n10821  =   5.2869m
 +1:n10822  =   5.2869m 1:n10823  =   5.2869m 1:n10824  =   5.2869m
 +1:n10825  =   5.2869m 1:n10826  =   5.2869m 1:n10827  =   5.2869m
 +1:n10828  =   5.2869m 1:n10829  =   5.2869m 1:n1083   =  33.3148p
 +1:n10830  =   5.2869m 1:n10831  =   5.2869m 1:n10832  =   5.2869m
 +1:n10833  =   5.2869m 1:n10834  =   5.2869m 1:n10835  =   5.2869m
 +1:n10836  =   5.2869m 1:n10837  =   5.2869m 1:n10838  =   5.2869m
 +1:n10839  =   5.2869m 1:n1084   =  33.3148p 1:n10840  =   5.2869m
 +1:n10841  =   5.2869m 1:n10842  =   5.2869m 1:n10843  =   5.2869m
 +1:n10844  =   5.2869m 1:n10845  =   5.2869m 1:n10846  =   5.2869m
 +1:n10847  =   5.2869m 1:n10848  =   5.2869m 1:n10849  =   5.2869m
 +1:n1085   =  33.3148p 1:n10850  =   5.2869m 1:n10851  =   5.2869m
 +1:n10852  =   5.2869m 1:n10853  =   5.2869m 1:n10854  =   5.2869m
 +1:n10855  =   5.2869m 1:n10856  =   5.2869m 1:n10857  =   5.2869m
 +1:n10858  =   5.2869m 1:n10859  =   5.2869m 1:n1086   =  33.3148p
 +1:n10860  =   5.2869m 1:n10861  =   5.2869m 1:n10862  =   5.2869m
 +1:n10863  =   5.2869m 1:n10864  =   5.2869m 1:n10865  =   5.2869m
 +1:n10866  =   5.2869m 1:n10867  =   5.2869m 1:n10868  =   5.2869m
 +1:n10869  =   5.2869m 1:n1087   =  33.3148p 1:n10870  =   5.2869m
 +1:n10871  =   5.2869m 1:n10872  =   5.2869m 1:n10873  =   5.2869m
 +1:n10874  =   5.2869m 1:n10875  =   5.2869m 1:n10876  =   5.2869m
 +1:n10877  =   5.2869m 1:n10878  =   5.2869m 1:n10879  =   5.2869m
 +1:n1088   =  33.3148p 1:n10880  =   5.2869m 1:n10881  =   5.2869m
 +1:n10882  =   5.2869m 1:n10883  =   5.2869m 1:n10884  =   5.2869m
 +1:n10885  =   5.2869m 1:n10886  =   5.2869m 1:n10887  =   5.2869m
 +1:n10888  =   5.2869m 1:n10889  =   5.2869m 1:n1089   =  33.3148p
 +1:n10890  =   5.2869m 1:n10891  =   5.2869m 1:n10892  =   5.2869m
 +1:n10893  =   5.2869m 1:n10894  =   5.2869m 1:n10895  =   5.2869m
 +1:n10896  =   5.2869m 1:n10897  =   5.2869m 1:n10898  =   5.2869m
 +1:n10899  =   5.2869m 1:n1090   =  33.3148p 1:n10900  =   5.2869m
 +1:n10901  =   5.2869m 1:n10902  =   5.2869m 1:n10903  =   5.2869m
 +1:n10904  =   5.2869m 1:n10905  =   5.2869m 1:n10906  =   5.2869m
 +1:n10907  =   5.2869m 1:n10908  =   5.2869m 1:n10909  =   5.2869m
 +1:n1091   =  33.3148p 1:n10910  =   5.2869m 1:n10911  =   5.2869m
 +1:n10912  =   5.2869m 1:n10913  =   5.2869m 1:n10914  =   5.2869m
 +1:n10915  =   5.2869m 1:n10916  =   5.2869m 1:n10917  =   5.2869m
 +1:n10918  =   5.2869m 1:n10919  =   5.2869m 1:n1092   =  33.3148p
 +1:n10920  =   5.2869m 1:n10921  =   5.2869m 1:n10922  =   5.2869m
 +1:n10923  =   5.2869m 1:n10924  =   5.2869m 1:n10925  =   5.2869m
 +1:n10926  =   5.2869m 1:n10927  =   5.2869m 1:n10928  =   5.2869m
 +1:n10929  =   5.2869m 1:n1093   =  33.3148p 1:n10930  =   5.2869m
 +1:n10931  =   5.2869m 1:n10932  =   5.2869m 1:n10933  =   5.2869m
 +1:n10934  =   5.2869m 1:n10935  =   5.2869m 1:n10936  =   5.2869m
 +1:n10937  =   5.2869m 1:n10938  =   5.2869m 1:n10939  =   5.2869m
 +1:n1094   =  33.3148p 1:n10940  =   5.2869m 1:n10941  =   5.2869m
 +1:n10942  =   5.2869m 1:n10943  =   5.2869m 1:n10944  =   5.2869m
 +1:n10945  =   5.2869m 1:n10946  =   5.2869m 1:n10947  =   5.2869m
 +1:n10948  =   5.2869m 1:n10949  =   5.2869m 1:n1095   =  33.3148p
 +1:n10950  =   5.2869m 1:n10951  =   5.2869m 1:n10952  =   5.2869m
 +1:n10953  =   5.2869m 1:n10954  =   5.2869m 1:n10955  =   5.2869m
 +1:n10956  =   5.2869m 1:n10957  =   5.2869m 1:n10958  =   5.2869m
 +1:n10959  =   3.9226m 1:n1096   =  33.3148p 1:n10960  =   3.9226m
 +1:n10961  =   3.9226m 1:n10962  =   3.9226m 1:n10963  =   3.9226m
 +1:n10964  =   3.9226m 1:n10965  =   3.9226m 1:n10966  =   3.9226m
 +1:n10967  =   3.9226m 1:n10968  =   3.9226m 1:n10969  =   3.9226m
 +1:n1097   =  33.3148p 1:n10970  =   3.9226m 1:n10971  =   3.9226m
 +1:n10972  =   3.9226m 1:n10973  =   3.9226m 1:n10974  =   3.9226m
 +1:n10975  =   3.9226m 1:n10976  =   3.9226m 1:n10977  =   3.9226m
 +1:n10978  =   3.9226m 1:n10979  =   3.9226m 1:n1098   =  33.3148p
 +1:n10980  =   3.9226m 1:n10981  =   3.9226m 1:n10982  =   3.9226m
 +1:n10983  =   3.9226m 1:n10984  =   3.9226m 1:n10985  =   3.9226m
 +1:n10986  =   3.9226m 1:n10987  =   3.9226m 1:n10988  =   3.9226m
 +1:n10989  =   3.9226m 1:n1099   =  33.3148p 1:n10990  =   3.9226m
 +1:n10991  =   3.9226m 1:n10992  =   3.9226m 1:n10993  =   3.9226m
 +1:n10994  =   3.9226m 1:n10995  =   3.9226m 1:n10996  =   3.9226m
 +1:n10997  =   3.9226m 1:n10998  =   3.9226m 1:n10999  =   3.9226m
 +1:n1100   =  33.3148p 1:n11000  =   3.9226m 1:n11001  =   3.9226m
 +1:n11002  =   3.9226m 1:n11003  =   3.9226m 1:n11004  =   3.9226m
 +1:n11005  =   3.9226m 1:n11006  =   3.9226m 1:n11007  =   3.9226m
 +1:n11008  =   3.9226m 1:n11009  =   3.9226m 1:n1101   =  33.3148p
 +1:n11010  =   3.9226m 1:n11011  =   3.9226m 1:n11012  =   3.9226m
 +1:n11013  =   3.9226m 1:n11014  =   3.9226m 1:n11015  =   3.9226m
 +1:n11016  =   3.9226m 1:n11017  =   3.9226m 1:n11018  =   3.9226m
 +1:n11019  =   3.9226m 1:n1102   =  33.3148p 1:n11020  =   3.9226m
 +1:n11021  =   3.9226m 1:n11022  =   3.9226m 1:n11023  =   3.9226m
 +1:n11024  =   3.9226m 1:n11025  =   3.9226m 1:n11026  =   3.9226m
 +1:n11027  =   3.9226m 1:n11028  =   3.9226m 1:n11029  =   3.9226m
 +1:n1103   =  33.3148p 1:n11030  =   3.9226m 1:n11031  =   3.9226m
 +1:n11032  =   3.9226m 1:n11033  =   3.9226m 1:n11034  =   3.9226m
 +1:n11035  =   3.9226m 1:n11036  =   3.9226m 1:n11037  =   3.9226m
 +1:n11038  =   3.9226m 1:n11039  =   3.9226m 1:n1104   =  33.3148p
 +1:n11040  =   3.9226m 1:n11041  =   3.9226m 1:n11042  =   3.9226m
 +1:n11043  =   3.9226m 1:n11044  =   3.9226m 1:n11045  =   3.9226m
 +1:n11046  =   3.9226m 1:n11047  =   3.9226m 1:n11048  =   3.9226m
 +1:n11049  =   3.9226m 1:n1105   =  33.3148p 1:n11050  =   3.9226m
 +1:n11051  =   3.9226m 1:n11052  =   3.9226m 1:n11053  =   3.9226m
 +1:n11054  =   3.9226m 1:n11055  =   3.9226m 1:n11056  =   3.9226m
 +1:n11057  =   3.9226m 1:n11058  =   3.9226m 1:n11059  =   3.9226m
 +1:n1106   =  33.3148p 1:n11060  =   3.9226m 1:n11061  =   3.9226m
 +1:n11062  =   3.9226m 1:n11063  =   3.9226m 1:n11064  =   3.9226m
 +1:n11065  =   3.9226m 1:n11066  =   3.9226m 1:n11067  =   3.9226m
 +1:n11068  =   3.9226m 1:n11069  =   3.9226m 1:n1107   =  33.3148p
 +1:n11070  =   3.9226m 1:n11071  =   3.9226m 1:n11072  =   3.9226m
 +1:n11073  =   3.9226m 1:n11074  =   3.9226m 1:n11075  =   3.9226m
 +1:n11076  =   3.9226m 1:n11077  =   3.9226m 1:n11078  =   3.9226m
 +1:n11079  =   3.9226m 1:n1108   =  33.3148p 1:n11080  =   3.9226m
 +1:n11081  =   3.9226m 1:n11082  =   3.9226m 1:n11083  =   3.9226m
 +1:n11084  =   3.9226m 1:n11085  =   3.9226m 1:n11086  =   3.9226m
 +1:n11087  =   3.9226m 1:n11088  =   3.9226m 1:n11089  =   3.9226m
 +1:n1109   =  33.3148p 1:n11090  =   3.9226m 1:n11091  =   3.9226m
 +1:n11092  =   3.9226m 1:n11093  =   3.9226m 1:n11094  =   3.9226m
 +1:n11095  =   3.9226m 1:n11096  =   3.9226m 1:n11097  =   3.9226m
 +1:n11098  =   3.9226m 1:n11099  =   3.9226m 1:n1110   =  33.3148p
 +1:n11100  =   3.9226m 1:n11101  =   3.9226m 1:n11102  =   3.9226m
 +1:n11103  =   3.9226m 1:n11104  =   3.9226m 1:n11105  =   3.9226m
 +1:n11106  =   3.9226m 1:n11107  =   3.9226m 1:n11108  =   3.9226m
 +1:n11109  =   3.9226m 1:n1111   =  33.3148p 1:n11110  =   3.9226m
 +1:n11111  =   3.9226m 1:n11112  =   3.9226m 1:n11113  =   3.9226m
 +1:n11114  =   3.9226m 1:n11115  =   3.9226m 1:n11116  =   3.9226m
 +1:n11117  =   3.9226m 1:n11118  =   3.9226m 1:n11119  =   3.9226m
 +1:n1112   =  33.3148p 1:n11120  =   3.9226m 1:n11121  =   3.9226m
 +1:n11122  =   3.9226m 1:n11123  =   3.9226m 1:n11124  =   3.9226m
 +1:n11125  =   3.9226m 1:n11126  =   3.9226m 1:n11127  =   3.9226m
 +1:n11128  =   3.9226m 1:n11129  =   3.9226m 1:n1113   =  33.3148p
 +1:n11130  =   3.9226m 1:n11131  =   3.9226m 1:n11132  =   3.9226m
 +1:n11133  =   3.9226m 1:n11134  =   3.9226m 1:n11135  =   3.9226m
 +1:n11136  =   3.9226m 1:n11137  =   3.9226m 1:n11138  =   3.9226m
 +1:n11139  =   3.9226m 1:n1114   =  33.3148p 1:n11140  =   3.9226m
 +1:n11141  =   3.9226m 1:n11142  =   3.9226m 1:n11143  =   3.9226m
 +1:n11144  =   3.9226m 1:n11145  =   3.9226m 1:n11146  =   3.9226m
 +1:n11147  =   3.9226m 1:n11148  =   3.9226m 1:n11149  =   3.9226m
 +1:n1115   =  33.3148p 1:n11150  =   3.9226m 1:n11151  =   3.9226m
 +1:n11152  =   3.9226m 1:n11153  =   3.9226m 1:n11154  =   3.9226m
 +1:n11155  =   3.9226m 1:n11156  =   3.9226m 1:n11157  =   3.9226m
 +1:n11158  =   1.9777m 1:n11159  =   1.9777m 1:n1116   =  33.3148p
 +1:n11160  =   1.9777m 1:n11161  =   1.9777m 1:n11162  =   1.9777m
 +1:n11163  =   1.9777m 1:n11164  =   1.9777m 1:n11165  =   1.9777m
 +1:n11166  =   1.9777m 1:n11167  =   1.9777m 1:n11168  =   1.9777m
 +1:n11169  =   1.9777m 1:n1117   =  33.3148p 1:n11170  =   1.9777m
 +1:n11171  =   1.9777m 1:n11172  =   1.9777m 1:n11173  =   1.9777m
 +1:n11174  =   1.9777m 1:n11175  =   1.9777m 1:n11176  =   1.9777m
 +1:n11177  =   1.9777m 1:n11178  =   1.9777m 1:n11179  =   1.9777m
 +1:n1118   =  33.3148p 1:n11180  =   1.9777m 1:n11181  =   1.9777m
 +1:n11182  =   1.9777m 1:n11183  =   1.9777m 1:n11184  =   1.9777m
 +1:n11185  =   1.9777m 1:n11186  =   1.9777m 1:n11187  =   1.9777m
 +1:n11188  =   1.9777m 1:n11189  =   1.9777m 1:n1119   =  33.3148p
 +1:n11190  =   1.9777m 1:n11191  =   1.9777m 1:n11192  =   1.9777m
 +1:n11193  =   1.9777m 1:n11194  =   1.9777m 1:n11195  =   1.9777m
 +1:n11196  =   1.9777m 1:n11197  =   1.9777m 1:n11198  =   1.9777m
 +1:n11199  =   1.9777m 1:n1120   =  33.3148p 1:n11200  =   1.9777m
 +1:n11201  =   1.9777m 1:n11202  =   1.9777m 1:n11203  =   1.9777m
 +1:n11204  =   1.9777m 1:n11205  =   1.9777m 1:n11206  =   1.9777m
 +1:n11207  =   1.9777m 1:n11208  =   1.9777m 1:n11209  =   1.9777m
 +1:n1121   =  33.3148p 1:n11210  =   1.9777m 1:n11211  =   1.9777m
 +1:n11212  =   1.9777m 1:n11213  =   1.9777m 1:n11214  =   1.9777m
 +1:n11215  =   1.9777m 1:n11216  =   1.9777m 1:n11217  =   1.9777m
 +1:n11218  =   1.9777m 1:n11219  =   1.9777m 1:n1122   =  33.3148p
 +1:n11220  =   1.9777m 1:n11221  =   1.9777m 1:n11222  =   1.9777m
 +1:n11223  =   1.9777m 1:n11224  =   1.9777m 1:n11225  =   1.9777m
 +1:n11226  =   1.9777m 1:n11227  =   1.9777m 1:n11228  =   1.9777m
 +1:n11229  =   1.9777m 1:n1123   =  33.3148p 1:n11230  =   1.9777m
 +1:n11231  =   1.9777m 1:n11232  =   1.9777m 1:n11233  =   1.9777m
 +1:n11234  =   1.9777m 1:n11235  =   1.9777m 1:n11236  =   1.9777m
 +1:n11237  =   1.9777m 1:n11238  =   1.9777m 1:n11239  =   1.9777m
 +1:n1124   =  33.3148p 1:n11240  =   1.9777m 1:n11241  =   1.9777m
 +1:n11242  =   1.9777m 1:n11243  =   1.9777m 1:n11244  =   1.9777m
 +1:n11245  =   1.9777m 1:n11246  =   1.9777m 1:n11247  =   1.9777m
 +1:n11248  =   1.9777m 1:n11249  =   1.9777m 1:n1125   =  33.3148p
 +1:n11250  =   1.9777m 1:n11251  =   1.9777m 1:n11252  =   1.9777m
 +1:n11253  =   1.9777m 1:n11254  =   1.9777m 1:n11255  =   1.9777m
 +1:n11256  =   1.9777m 1:n11257  =   1.9777m 1:n11258  =   1.9777m
 +1:n11259  =   1.9777m 1:n1126   =  33.3148p 1:n11260  =   1.9777m
 +1:n11261  =   1.9777m 1:n11262  =   1.9777m 1:n11263  =   1.9777m
 +1:n11264  =   1.9777m 1:n11265  =   1.9777m 1:n11266  =   1.9777m
 +1:n11267  =   1.9777m 1:n11268  =   1.9777m 1:n11269  =   1.9777m
 +1:n1127   =  33.3148p 1:n11270  =   1.9777m 1:n11271  =   1.9777m
 +1:n11272  =   1.9777m 1:n11273  =   1.9777m 1:n11274  =   1.9777m
 +1:n11275  =   1.1807m 1:n11276  =   1.1807m 1:n11277  =   1.1807m
 +1:n11278  =   1.1807m 1:n11279  =   1.1807m 1:n1128   =  33.3148p
 +1:n11280  =   1.1807m 1:n11281  =   1.1807m 1:n11282  =   1.1807m
 +1:n11283  =   1.1807m 1:n11284  =   1.1807m 1:n11285  =   1.1807m
 +1:n11286  =   1.1807m 1:n11287  =   1.1807m 1:n11288  =   1.1807m
 +1:n11289  =   1.1807m 1:n1129   =  33.3148p 1:n11290  =   1.1807m
 +1:n11291  =   1.1807m 1:n11292  =   1.1807m 1:n11293  =   1.1807m
 +1:n11294  =   1.1807m 1:n11295  =   1.1807m 1:n11296  =   1.1807m
 +1:n11297  =   1.1807m 1:n11298  =   1.1807m 1:n11299  =   1.1807m
 +1:n1130   =  33.3148p 1:n11300  =   1.1807m 1:n11301  =   1.1807m
 +1:n11302  =   1.1807m 1:n11303  =   1.1807m 1:n11304  =   1.1807m
 +1:n11305  =   1.1807m 1:n11306  =   1.1807m 1:n11307  =   1.1807m
 +1:n11308  =   1.1807m 1:n11309  =   1.1807m 1:n1131   =  33.3148p
 +1:n11310  =   1.1807m 1:n11311  =   1.1807m 1:n11312  =   1.1807m
 +1:n11313  =   1.1807m 1:n11314  =   1.1807m 1:n11315  =   1.1807m
 +1:n11316  =   1.1807m 1:n11317  =   1.1807m 1:n11318  =   1.1807m
 +1:n11319  =   1.1807m 1:n1132   =  33.3148p 1:n11320  =   1.1807m
 +1:n11321  =   1.1807m 1:n11322  =   1.1807m 1:n11323  =   1.1807m
 +1:n11324  =   1.1807m 1:n11325  =   1.1807m 1:n11326  =   1.1807m
 +1:n11327  =   1.1807m 1:n11328  =   1.1807m 1:n11329  =   1.1807m
 +1:n1133   =  33.3148p 1:n11330  =   1.1807m 1:n11331  =   1.1807m
 +1:n11332  =   1.1807m 1:n11333  =   1.1807m 1:n11334  =   1.1807m
 +1:n11335  =   1.1807m 1:n11336  =   1.1807m 1:n11337  =   1.1807m
 +1:n11338  =   1.1807m 1:n11339  =   1.1807m 1:n1134   =  33.3148p
 +1:n11340  =   1.1807m 1:n11341  =   1.1807m 1:n11342  =   1.1807m
 +1:n11343  =   1.1807m 1:n11344  =   1.1807m 1:n11345  =   1.1807m
 +1:n11346  =   1.1807m 1:n11347  =   1.1807m 1:n11348  =   1.1807m
 +1:n11349  =   1.1807m 1:n1135   =  33.3148p 1:n11350  =   1.1807m
 +1:n11351  =   1.1807m 1:n11352  =   1.1807m 1:n11353  =   1.1807m
 +1:n11354  =   1.1807m 1:n11355  =   1.1807m 1:n11356  =   7.1623m
 +1:n11357  =   7.1623m 1:n11358  =   7.1623m 1:n11359  =   7.1623m
 +1:n1136   =  32.8215p 1:n11360  =   7.1623m 1:n11361  =   7.1623m
 +1:n11362  =   7.1623m 1:n11363  =   7.1623m 1:n11364  =   7.1623m
 +1:n11365  =   7.1623m 1:n11366  =   7.1623m 1:n11367  =   7.1623m
 +1:n11368  =   7.1623m 1:n11369  =   7.1623m 1:n1137   =  32.8215p
 +1:n11370  =   7.1623m 1:n11371  =   7.1623m 1:n11372  =   7.1623m
 +1:n11373  =   7.1623m 1:n11374  =   7.1623m 1:n11375  =   7.1623m
 +1:n11376  =   7.1623m 1:n11377  =   7.1623m 1:n11378  =   7.1623m
 +1:n11379  =   7.1623m 1:n1138   =  32.8215p 1:n11380  =   7.1623m
 +1:n11381  =   7.1623m 1:n11382  =   7.1623m 1:n11383  =   7.1623m
 +1:n11384  =   7.1623m 1:n11385  =   7.1623m 1:n11386  =   7.1623m
 +1:n11387  =   7.1623m 1:n11388  =   7.1623m 1:n11389  =   7.1623m
 +1:n1139   =  32.8215p 1:n11390  =   7.1623m 1:n11391  =   7.1623m
 +1:n11392  =   7.1623m 1:n11393  =   7.1623m 1:n11394  =   7.1623m
 +1:n11395  =   7.1623m 1:n11396  =   7.1623m 1:n11397  =   7.1623m
 +1:n11398  =   7.1623m 1:n11399  =   7.1623m 1:n1140   =  32.8215p
 +1:n11400  =   7.1623m 1:n11401  =   7.1623m 1:n11402  =   7.1623m
 +1:n11403  =   7.1623m 1:n11404  =   7.1623m 1:n11405  =   7.1623m
 +1:n11406  =   7.1623m 1:n11407  =   7.1623m 1:n11408  =   7.1623m
 +1:n11409  =   7.1623m 1:n1141   =  32.8215p 1:n11410  =   7.1623m
 +1:n11411  =   7.1623m 1:n11412  =   7.1623m 1:n11413  =   7.1623m
 +1:n11414  =   7.1623m 1:n11415  =   7.1623m 1:n11416  =   7.1623m
 +1:n11417  =   7.1623m 1:n11418  =   7.1623m 1:n11419  =   7.1623m
 +1:n1142   =  32.8215p 1:n11420  =   7.1623m 1:n11421  =   7.1623m
 +1:n11422  =   7.1623m 1:n11423  =   7.1623m 1:n11424  =   7.1623m
 +1:n11425  =   7.1623m 1:n11426  =   7.1623m 1:n11427  =   7.1623m
 +1:n11428  =   7.1623m 1:n11429  =   7.1623m 1:n1143   =  32.8215p
 +1:n11430  =   7.1623m 1:n11431  =   7.1623m 1:n11432  =   7.1623m
 +1:n11433  =   7.1623m 1:n11434  =   7.1623m 1:n11435  =   7.1623m
 +1:n11436  =   7.1623m 1:n11437  =   7.1623m 1:n11438  =   7.1623m
 +1:n11439  =   7.1623m 1:n1144   =  32.8215p 1:n11440  =   7.1623m
 +1:n11441  =   7.1623m 1:n11442  =   7.1623m 1:n11443  =   7.1623m
 +1:n11444  =   7.1623m 1:n11445  =   7.1623m 1:n11446  =   7.1623m
 +1:n11447  =   7.1623m 1:n11448  =   7.1623m 1:n11449  =   7.1623m
 +1:n1145   =  32.8215p 1:n11450  =   7.1623m 1:n11451  =   7.1623m
 +1:n11452  =   7.1623m 1:n11453  =   7.1623m 1:n11454  =   7.1623m
 +1:n11455  =   7.1623m 1:n11456  =   7.1623m 1:n11457  =   7.1623m
 +1:n11458  =   7.1623m 1:n11459  =   7.1623m 1:n1146   =  32.8215p
 +1:n11460  =   7.1623m 1:n11461  =   7.1623m 1:n11462  =   7.1623m
 +1:n11463  =   7.1623m 1:n11464  =   7.1623m 1:n11465  =   7.1623m
 +1:n11466  =   7.1623m 1:n11467  =   7.1623m 1:n11468  =   7.1623m
 +1:n11469  =   7.1623m 1:n1147   =  32.8215p 1:n11470  =   7.1623m
 +1:n11471  =   7.1623m 1:n11472  =   7.1623m 1:n11473  =   7.1623m
 +1:n11474  =   7.1623m 1:n11475  =   7.1623m 1:n11476  =   7.1623m
 +1:n11477  =   7.1623m 1:n11478  =   7.1623m 1:n11479  =   7.1623m
 +1:n1148   =  32.8215p 1:n11480  =   7.1623m 1:n11481  =   7.1623m
 +1:n11482  =   7.1623m 1:n11483  =   7.1623m 1:n11484  =   7.1623m
 +1:n11485  =   7.1623m 1:n11486  =   7.1623m 1:n11487  =   7.1623m
 +1:n11488  =   7.1623m 1:n11489  =   7.1623m 1:n1149   =  32.8215p
 +1:n11490  =   7.1623m 1:n11491  =   7.1623m 1:n11492  =   7.1623m
 +1:n11493  =   7.1623m 1:n11494  =   7.1623m 1:n11495  =   7.1623m
 +1:n11496  =   7.1623m 1:n11497  =   7.1623m 1:n11498  =   7.1623m
 +1:n11499  =   7.1623m 1:n1150   =  32.8215p 1:n11500  =   7.1623m
 +1:n11501  =   7.1623m 1:n11502  =   7.1623m 1:n11503  =   7.1623m
 +1:n11504  =   7.1623m 1:n11505  =   7.1623m 1:n11506  =   7.1623m
 +1:n11507  =   7.1623m 1:n11508  =   7.1623m 1:n11509  =   7.1623m
 +1:n1151   =  32.8215p 1:n11510  =   7.1623m 1:n11511  =   7.1623m
 +1:n11512  =   7.1623m 1:n11513  =   7.1623m 1:n11514  =   7.1623m
 +1:n11515  =   7.1623m 1:n11516  =   7.1623m 1:n11517  =   7.1623m
 +1:n11518  =   7.1623m 1:n11519  =   7.1623m 1:n1152   =  32.8215p
 +1:n11520  =   7.1623m 1:n11521  =   7.1623m 1:n11522  =   7.1623m
 +1:n11523  =   7.1623m 1:n11524  =   7.1623m 1:n11525  =   7.1623m
 +1:n11526  =   7.1623m 1:n11527  =   7.1623m 1:n11528  =   7.1623m
 +1:n11529  =   7.1623m 1:n1153   =  32.8215p 1:n11530  =   7.1623m
 +1:n11531  =   7.1623m 1:n11532  =   7.1623m 1:n11533  =   7.1623m
 +1:n11534  =   7.1623m 1:n11535  =   7.1623m 1:n11536  =   7.1623m
 +1:n11537  =   7.1623m 1:n11538  =   7.1623m 1:n11539  =   7.1623m
 +1:n1154   =  32.8215p 1:n11540  =   7.1623m 1:n11541  =   7.1623m
 +1:n11542  =   7.1623m 1:n11543  =   7.1623m 1:n11544  =   7.1623m
 +1:n11545  =   7.1623m 1:n11546  =   7.1623m 1:n11547  =   7.1623m
 +1:n11548  =   7.1623m 1:n11549  =   7.1623m 1:n1155   =  32.8215p
 +1:n11550  =   7.1623m 1:n11551  =   7.1623m 1:n11552  =   7.1623m
 +1:n11553  =   7.1623m 1:n11554  =   7.1623m 1:n11555  =   7.1623m
 +1:n11556  =   7.1623m 1:n11557  =   7.1623m 1:n11558  =   7.1623m
 +1:n11559  =   7.1623m 1:n1156   =  32.8215p 1:n11560  =   7.1623m
 +1:n11561  =   7.1623m 1:n11562  =   7.1623m 1:n11563  =   7.4947m
 +1:n11564  =   7.4947m 1:n11565  =   7.4947m 1:n11566  =   7.4947m
 +1:n11567  =   7.4947m 1:n11568  =   7.4947m 1:n11569  =   7.4947m
 +1:n1157   =  32.8215p 1:n11570  =   7.4947m 1:n11571  =   7.4947m
 +1:n11572  =   7.4947m 1:n11573  =   7.4947m 1:n11574  =   7.4947m
 +1:n11575  =   7.4947m 1:n11576  =   7.4947m 1:n11577  =   7.4947m
 +1:n11578  =   7.4947m 1:n11579  =   7.4947m 1:n1158   =  32.8215p
 +1:n11580  =   7.4947m 1:n11581  =   7.4947m 1:n11582  =   7.4947m
 +1:n11583  =   7.4947m 1:n11584  =   7.4947m 1:n11585  =   7.4947m
 +1:n11586  =   7.4947m 1:n11587  =   7.4947m 1:n11588  =   7.4947m
 +1:n11589  =   7.4947m 1:n1159   =  32.8215p 1:n11590  =   7.4947m
 +1:n11591  =   7.4947m 1:n11592  =   7.4947m 1:n11593  =   7.4947m
 +1:n11594  =   7.4947m 1:n11595  =   7.4947m 1:n11596  =   7.4947m
 +1:n11597  =   7.4947m 1:n11598  =   7.4947m 1:n11599  =   7.4947m
 +1:n1160   =  32.8215p 1:n11600  =   7.4947m 1:n11601  =   7.4947m
 +1:n11602  =   7.4947m 1:n11603  =   7.4947m 1:n11604  =   7.4947m
 +1:n11605  =   7.4947m 1:n11606  =   7.4947m 1:n11607  =   7.4947m
 +1:n11608  =   7.4947m 1:n11609  =   7.4947m 1:n1161   =  32.8215p
 +1:n11610  =   7.4947m 1:n11611  =   7.4947m 1:n11612  =   7.4947m
 +1:n11613  =   7.4947m 1:n11614  =   7.4947m 1:n11615  =   7.4947m
 +1:n11616  =   7.4947m 1:n11617  =   7.4947m 1:n11618  =   7.4947m
 +1:n11619  =   7.4947m 1:n1162   =  32.8215p 1:n11620  =   7.4947m
 +1:n11621  =   7.4947m 1:n11622  =   7.4947m 1:n11623  =   7.4947m
 +1:n11624  =   7.4947m 1:n11625  =   7.4947m 1:n11626  =   7.4947m
 +1:n11627  =   7.4947m 1:n11628  =   7.4947m 1:n11629  =   7.4947m
 +1:n1163   =  32.8215p 1:n11630  =   7.4947m 1:n11631  =   7.4947m
 +1:n11632  =   7.4947m 1:n11633  =   7.4947m 1:n11634  =   7.4947m
 +1:n11635  =   7.4947m 1:n11636  =   7.4947m 1:n11637  =   7.4947m
 +1:n11638  =   7.4947m 1:n11639  =   7.4947m 1:n1164   =  32.8215p
 +1:n11640  =   7.4947m 1:n11641  =   7.4947m 1:n11642  =   7.4947m
 +1:n11643  =   7.4947m 1:n11644  =   7.4947m 1:n11645  =   7.4947m
 +1:n11646  =   7.4947m 1:n11647  =   7.4947m 1:n11648  =   7.4947m
 +1:n11649  =   7.4947m 1:n1165   =  32.8215p 1:n11650  =   7.4947m
 +1:n11651  =   7.4947m 1:n11652  =   7.4947m 1:n11653  =   7.4947m
 +1:n11654  =   7.4947m 1:n11655  =   7.4947m 1:n11656  =   7.4947m
 +1:n11657  =   7.4947m 1:n11658  =   7.4947m 1:n11659  =   7.4947m
 +1:n1166   =  32.8215p 1:n11660  =   7.4947m 1:n11661  =   7.4947m
 +1:n11662  =   7.4947m 1:n11663  =   7.4947m 1:n11664  =   7.4947m
 +1:n11665  =   7.4947m 1:n11666  =   7.4947m 1:n11667  =   7.4947m
 +1:n11668  =   7.4947m 1:n11669  =   7.4947m 1:n1167   =  32.8215p
 +1:n11670  =   7.4947m 1:n11671  =   7.4947m 1:n11672  =   7.4947m
 +1:n11673  =   7.4947m 1:n11674  =   7.4947m 1:n11675  =   7.4947m
 +1:n11676  =   7.4947m 1:n11677  =   7.4947m 1:n11678  =   7.4947m
 +1:n11679  =   7.4947m 1:n1168   =  32.8215p 1:n11680  =   7.4947m
 +1:n11681  =   7.4947m 1:n11682  =   7.4947m 1:n11683  =   7.4947m
 +1:n11684  =   7.4947m 1:n11685  =   7.4947m 1:n11686  =   7.4947m
 +1:n11687  =   7.4947m 1:n11688  =   7.4947m 1:n11689  =   7.4947m
 +1:n1169   =  32.8215p 1:n11690  =   7.4947m 1:n11691  =   7.4947m
 +1:n11692  =   7.4947m 1:n11693  =   7.4947m 1:n11694  =   7.4947m
 +1:n11695  =   7.4947m 1:n11696  =   7.4947m 1:n11697  =   7.4947m
 +1:n11698  =   7.4947m 1:n11699  =   7.4947m 1:n1170   =  32.8215p
 +1:n11700  =   7.4947m 1:n11701  =   7.4947m 1:n11702  =   7.4947m
 +1:n11703  =   7.4947m 1:n11704  =   7.4947m 1:n11705  =   7.4947m
 +1:n11706  =   7.4947m 1:n11707  =   7.4947m 1:n11708  =   7.4947m
 +1:n11709  =   7.4947m 1:n1171   =  32.8215p 1:n11710  =   7.4947m
 +1:n11711  =   7.4947m 1:n11712  =   7.4947m 1:n11713  =   7.4947m
 +1:n11714  =   7.4947m 1:n11715  =   7.4947m 1:n11716  =   7.4947m
 +1:n11717  =   7.4947m 1:n11718  =   7.4947m 1:n11719  =   7.4947m
 +1:n1172   =  32.8215p 1:n11720  =   7.4947m 1:n11721  =   7.4947m
 +1:n11722  =   7.4947m 1:n11723  =   7.4947m 1:n11724  =   7.4947m
 +1:n11725  =   7.4947m 1:n11726  =   7.4947m 1:n11727  =   7.4947m
 +1:n11728  =   7.4947m 1:n11729  =   7.4947m 1:n1173   =  32.8215p
 +1:n11730  =   7.4947m 1:n11731  =   7.4947m 1:n11732  =   7.4947m
 +1:n11733  =   7.4947m 1:n11734  =   7.4947m 1:n11735  =   7.4947m
 +1:n11736  =   7.4947m 1:n11737  =   7.4947m 1:n11738  =   7.4947m
 +1:n11739  =   7.4947m 1:n1174   =  32.8215p 1:n11740  =   7.4947m
 +1:n11741  =   7.4947m 1:n11742  =   7.4947m 1:n11743  =   7.4947m
 +1:n11744  =   7.4947m 1:n11745  =   7.4947m 1:n11746  =   7.4947m
 +1:n11747  =   7.4947m 1:n11748  =   7.4947m 1:n11749  =   7.4947m
 +1:n1175   =  32.8215p 1:n11750  =   7.4947m 1:n11751  =   7.4947m
 +1:n11752  =   7.4947m 1:n11753  =   7.4947m 1:n11754  =   7.4947m
 +1:n11755  =   7.4947m 1:n11756  =   7.4947m 1:n11757  =   7.4947m
 +1:n11758  =   7.4947m 1:n11759  =   7.4947m 1:n1176   =  32.8215p
 +1:n11760  =   7.4947m 1:n11761  =   7.4947m 1:n11762  =   7.4947m
 +1:n11763  =   7.4947m 1:n11764  =   7.4947m 1:n11765  =   7.4947m
 +1:n11766  =   7.4947m 1:n11767  =   7.4947m 1:n11768  =   7.4947m
 +1:n11769  =   7.4947m 1:n1177   =  32.8215p 1:n11770  =   7.4947m
 +1:n11771  =   7.4947m 1:n11772  =   7.4947m 1:n11773  =   7.4947m
 +1:n11774  =   7.4947m 1:n11775  =   7.4947m 1:n11776  =   7.4947m
 +1:n11777  =   7.4947m 1:n11778  =   7.4947m 1:n11779  =   7.4947m
 +1:n1178   =  32.8215p 1:n11780  =   7.4947m 1:n11781  =   7.4947m
 +1:n11782  =   7.4947m 1:n11783  =   7.4947m 1:n11784  =   7.4947m
 +1:n11785  =   7.4947m 1:n11786  =   7.4947m 1:n11787  =   5.2816m
 +1:n11788  =   5.2816m 1:n11789  =   5.2816m 1:n1179   =  32.8215p
 +1:n11790  =   5.2816m 1:n11791  =   5.2816m 1:n11792  =   5.2816m
 +1:n11793  =   5.2816m 1:n11794  =   5.2816m 1:n11795  =   5.2816m
 +1:n11796  =   5.2816m 1:n11797  =   5.2816m 1:n11798  =   5.2816m
 +1:n11799  =   5.2816m 1:n1180   =  32.8215p 1:n11800  =   5.2816m
 +1:n11801  =   5.2816m 1:n11802  =   5.2816m 1:n11803  =   5.2816m
 +1:n11804  =   5.2816m 1:n11805  =   5.2816m 1:n11806  =   5.2816m
 +1:n11807  =   5.2816m 1:n11808  =   5.2816m 1:n11809  =   5.2816m
 +1:n1181   =  32.8215p 1:n11810  =   5.2816m 1:n11811  =   5.2816m
 +1:n11812  =   5.2816m 1:n11813  =   5.2816m 1:n11814  =   5.2816m
 +1:n11815  =   5.2816m 1:n11816  =   5.2816m 1:n11817  =   5.2816m
 +1:n11818  =   5.2816m 1:n11819  =   5.2816m 1:n1182   =  32.8215p
 +1:n11820  =   5.2816m 1:n11821  =   5.2816m 1:n11822  =   5.2816m
 +1:n11823  =   5.2816m 1:n11824  =   5.2816m 1:n11825  =   5.2816m
 +1:n11826  =   5.2816m 1:n11827  =   5.2816m 1:n11828  =   5.2816m
 +1:n11829  =   5.2816m 1:n1183   =  32.8215p 1:n11830  =   5.2816m
 +1:n11831  =   5.2816m 1:n11832  =   5.2816m 1:n11833  =   5.2816m
 +1:n11834  =   5.2816m 1:n11835  =   5.2816m 1:n11836  =   5.2816m
 +1:n11837  =   5.2816m 1:n11838  =   5.2816m 1:n11839  =   5.2816m
 +1:n1184   =  32.8215p 1:n11840  =   5.2816m 1:n11841  =   5.2816m
 +1:n11842  =   5.2816m 1:n11843  =   5.2816m 1:n11844  =   5.2816m
 +1:n11845  =   5.2816m 1:n11846  =   5.2816m 1:n11847  =   5.2816m
 +1:n11848  =   5.2816m 1:n11849  =   5.2816m 1:n1185   =  32.8215p
 +1:n11850  =   5.2816m 1:n11851  =   5.2816m 1:n11852  =   5.2816m
 +1:n11853  =   5.2816m 1:n11854  =   5.2816m 1:n11855  =   5.2816m
 +1:n11856  =   5.2816m 1:n11857  =   5.2816m 1:n11858  =   5.2816m
 +1:n11859  =   5.2816m 1:n1186   =  32.8215p 1:n11860  =   5.2816m
 +1:n11861  =   5.2816m 1:n11862  =   5.2816m 1:n11863  =   5.2816m
 +1:n11864  =   5.2816m 1:n11865  =   5.2816m 1:n11866  =   5.2816m
 +1:n11867  =   5.2816m 1:n11868  =   5.2816m 1:n11869  =   5.2816m
 +1:n1187   =  32.8215p 1:n11870  =   5.2816m 1:n11871  =   5.2816m
 +1:n11872  =   5.2816m 1:n11873  =   5.2816m 1:n11874  =   5.2816m
 +1:n11875  =   5.2816m 1:n11876  =   5.2816m 1:n11877  =   5.2816m
 +1:n11878  =   5.2816m 1:n11879  =   5.2816m 1:n1188   =  32.8215p
 +1:n11880  =   5.2816m 1:n11881  =   5.2816m 1:n11882  =   5.2816m
 +1:n11883  =   5.2816m 1:n11884  =   5.2816m 1:n11885  =   5.2816m
 +1:n11886  =   5.2816m 1:n11887  =   5.2816m 1:n11888  =   5.2816m
 +1:n11889  =   5.2816m 1:n1189   =  32.8215p 1:n11890  =   5.2816m
 +1:n11891  =   5.2816m 1:n11892  =   5.2816m 1:n11893  =   5.2816m
 +1:n11894  =   5.2816m 1:n11895  =   5.2816m 1:n11896  =   5.2816m
 +1:n11897  =   5.2816m 1:n11898  =   5.2816m 1:n11899  =   5.2816m
 +1:n1190   =  32.8215p 1:n11900  =   5.2816m 1:n11901  =   5.2816m
 +1:n11902  =   5.2816m 1:n11903  =   5.2816m 1:n11904  =   5.2816m
 +1:n11905  =   5.2816m 1:n11906  =   5.2816m 1:n11907  =   5.2816m
 +1:n11908  =   5.2816m 1:n11909  =   5.2816m 1:n1191   =  32.8215p
 +1:n11910  =   5.2816m 1:n11911  =   5.2816m 1:n11912  =   5.2816m
 +1:n11913  =   5.2816m 1:n11914  =   5.2816m 1:n11915  =   5.2816m
 +1:n11916  =   5.2816m 1:n11917  =   5.2816m 1:n11918  =   5.2816m
 +1:n11919  =   5.2816m 1:n1192   =  32.8215p 1:n11920  =   5.2816m
 +1:n11921  =   5.2816m 1:n11922  =   5.2816m 1:n11923  =   5.2816m
 +1:n11924  =   5.2816m 1:n11925  =   5.2816m 1:n11926  =   5.2816m
 +1:n11927  =   5.2816m 1:n11928  =   5.2816m 1:n11929  =   5.2816m
 +1:n1193   =  32.8215p 1:n11930  =   5.2816m 1:n11931  =   5.2816m
 +1:n11932  =   5.2816m 1:n11933  =   5.2816m 1:n11934  =   5.2816m
 +1:n11935  =   5.2816m 1:n11936  =   5.2816m 1:n11937  =   5.2816m
 +1:n11938  =   5.2816m 1:n11939  =   5.2816m 1:n1194   =  32.8215p
 +1:n11940  =   5.2816m 1:n11941  =   5.2816m 1:n11942  =   5.2816m
 +1:n11943  =   5.2816m 1:n11944  =   5.2816m 1:n11945  =   5.2816m
 +1:n11946  =   5.2816m 1:n11947  =   5.2816m 1:n11948  =   5.2816m
 +1:n11949  =   5.2816m 1:n1195   =  32.8215p 1:n11950  =   5.2816m
 +1:n11951  =   5.2816m 1:n11952  =   5.2816m 1:n11953  =   5.2816m
 +1:n11954  =   5.2816m 1:n11955  =   5.2816m 1:n11956  =   5.2816m
 +1:n11957  =   5.2816m 1:n11958  =   5.2816m 1:n11959  =   5.2816m
 +1:n1196   =  32.8215p 1:n11960  =   5.2816m 1:n11961  =   5.2816m
 +1:n11962  =   5.2816m 1:n11963  =   5.2816m 1:n11964  =   5.2816m
 +1:n11965  =   5.2816m 1:n11966  =   5.2816m 1:n11967  =   5.2816m
 +1:n11968  =   5.2816m 1:n11969  =   5.2816m 1:n1197   =  32.8215p
 +1:n11970  =   5.2816m 1:n11971  =   5.2816m 1:n11972  =   5.2816m
 +1:n11973  =   5.2816m 1:n11974  =   5.2816m 1:n11975  =   5.2816m
 +1:n11976  =   5.2816m 1:n11977  =   5.2816m 1:n11978  =   5.2816m
 +1:n11979  =   5.2816m 1:n1198   =  32.8215p 1:n11980  =   5.2816m
 +1:n11981  =   5.2816m 1:n11982  =   5.2816m 1:n11983  =   5.2816m
 +1:n11984  =   5.2816m 1:n11985  =   5.2816m 1:n11986  =   5.2816m
 +1:n11987  =   5.2816m 1:n11988  =   5.2816m 1:n11989  =   5.2816m
 +1:n1199   =  32.8215p 1:n11990  =   5.2816m 1:n11991  =   5.2816m
 +1:n11992  =   5.2816m 1:n11993  =   5.2816m 1:n11994  =   5.2816m
 +1:n11995  =   5.2816m 1:n11996  =   5.2816m 1:n11997  =   5.2816m
 +1:n11998  =   5.2816m 1:n11999  =   5.2816m 1:n1200   =  32.8215p
 +1:n12000  =   5.2816m 1:n12001  =   5.2816m 1:n12002  =   5.2816m
 +1:n12003  =   2.5178m 1:n12004  =   2.5178m 1:n12005  =   2.5178m
 +1:n12006  =   2.5178m 1:n12007  =   2.5178m 1:n12008  =   2.5178m
 +1:n12009  =   2.5178m 1:n1201   =  32.8215p 1:n12010  =   2.5178m
 +1:n12011  =   2.5178m 1:n12012  =   2.5178m 1:n12013  =   2.5178m
 +1:n12014  =   2.5178m 1:n12015  =   2.5178m 1:n12016  =   2.5178m
 +1:n12017  =   2.5178m 1:n12018  =   2.5178m 1:n12019  =   2.5178m
 +1:n1202   =  33.0247p 1:n12020  =   2.5178m 1:n12021  =   2.5178m
 +1:n12022  =   2.5178m 1:n12023  =   2.5178m 1:n12024  =   2.5178m
 +1:n12025  =   2.5178m 1:n12026  =   2.5178m 1:n12027  =   2.5178m
 +1:n12028  =   2.5178m 1:n12029  =   2.5178m 1:n1203   =  33.0247p
 +1:n12030  =   2.5178m 1:n12031  =   2.5178m 1:n12032  =   2.5178m
 +1:n12033  =   2.5178m 1:n12034  =   2.5178m 1:n12035  =   2.5178m
 +1:n12036  =   2.5178m 1:n12037  =   2.5178m 1:n12038  =   2.5178m
 +1:n12039  =   2.5178m 1:n1204   =  33.0247p 1:n12040  =   2.5178m
 +1:n12041  =   2.5178m 1:n12042  =   2.5178m 1:n12043  =   2.5178m
 +1:n12044  =   2.5178m 1:n12045  =   2.5178m 1:n12046  =   2.5178m
 +1:n12047  =   2.5178m 1:n12048  =   2.5178m 1:n12049  =   2.5178m
 +1:n1205   =  33.0247p 1:n12050  =   2.5178m 1:n12051  =   2.5178m
 +1:n12052  =   2.5178m 1:n12053  =   2.5178m 1:n12054  =   2.5178m
 +1:n12055  =   2.5178m 1:n12056  =   2.5178m 1:n12057  =   2.5178m
 +1:n12058  =   2.5178m 1:n12059  =   2.5178m 1:n1206   =  33.0247p
 +1:n12060  =   2.5178m 1:n12061  =   2.5178m 1:n12062  =   2.5178m
 +1:n12063  =   2.5178m 1:n12064  =   2.5178m 1:n12065  =   2.5178m
 +1:n12066  =   2.5178m 1:n12067  =   2.5178m 1:n12068  =   2.5178m
 +1:n12069  =   2.5178m 1:n1207   =  33.0247p 1:n12070  =   2.5178m
 +1:n12071  =   2.5178m 1:n12072  =   2.5178m 1:n12073  =   2.5178m
 +1:n12074  =   2.5178m 1:n12075  =   2.5178m 1:n12076  =   2.5178m
 +1:n12077  =   2.5178m 1:n12078  =   2.5178m 1:n12079  =   2.5178m
 +1:n1208   =  33.0247p 1:n12080  =   2.5178m 1:n12081  =   2.5178m
 +1:n12082  =   2.5178m 1:n12083  =   2.5178m 1:n12084  =   2.5178m
 +1:n12085  =   2.5178m 1:n12086  =   2.5178m 1:n12087  =   2.5178m
 +1:n12088  =   2.5178m 1:n12089  =   2.5178m 1:n1209   =  33.0247p
 +1:n12090  =   2.5178m 1:n12091  =   2.5178m 1:n12092  =   2.5178m
 +1:n12093  =   2.5178m 1:n12094  =   2.5178m 1:n12095  =   2.5178m
 +1:n12096  =   2.5178m 1:n12097  =   2.5178m 1:n12098  =   2.5178m
 +1:n12099  =   2.5178m 1:n1210   =  33.0247p 1:n12100  =   2.5178m
 +1:n12101  =   2.5178m 1:n12102  =   2.5178m 1:n12103  =   2.5178m
 +1:n12104  =   2.5178m 1:n12105  =   2.5178m 1:n12106  =   2.5178m
 +1:n12107  =   2.5178m 1:n12108  =   2.5178m 1:n12109  =   2.5178m
 +1:n1211   =  33.0247p 1:n12110  =   2.5178m 1:n12111  =   2.5178m
 +1:n12112  =   2.5178m 1:n12113  =   2.5178m 1:n12114  =   2.5178m
 +1:n12115  =   2.5178m 1:n12116  =   2.5178m 1:n12117  =   2.5178m
 +1:n12118  =   2.5178m 1:n12119  =   2.5178m 1:n1212   =  33.0247p
 +1:n12120  =   2.5178m 1:n12121  =   2.5178m 1:n12122  =   2.5178m
 +1:n12123  =   2.5178m 1:n12124  =   2.5178m 1:n12125  =   2.5178m
 +1:n12126  =   2.5178m 1:n12127  =   2.5178m 1:n12128  =   2.5178m
 +1:n12129  =   2.5178m 1:n1213   =  33.0247p 1:n12130  =   2.5178m
 +1:n12131  =   2.5178m 1:n12132  =   2.5178m 1:n12133  =   1.4402m
 +1:n12134  =   1.4402m 1:n12135  =   1.4402m 1:n12136  =   1.4402m
 +1:n12137  =   1.4402m 1:n12138  =   1.4402m 1:n12139  =   1.4402m
 +1:n1214   =  33.0247p 1:n12140  =   1.4402m 1:n12141  =   1.4402m
 +1:n12142  =   1.4402m 1:n12143  =   1.4402m 1:n12144  =   1.4402m
 +1:n12145  =   1.4402m 1:n12146  =   1.4402m 1:n12147  =   1.4402m
 +1:n12148  =   1.4402m 1:n12149  =   1.4402m 1:n1215   =  33.0247p
 +1:n12150  =   1.4402m 1:n12151  =   1.4402m 1:n12152  =   1.4402m
 +1:n12153  =   1.4402m 1:n12154  =   1.4402m 1:n12155  =   1.4402m
 +1:n12156  =   1.4402m 1:n12157  =   1.4402m 1:n12158  =   1.4402m
 +1:n12159  =   1.4402m 1:n1216   =  33.0247p 1:n12160  =   1.4402m
 +1:n12161  =   1.4402m 1:n12162  =   1.4402m 1:n12163  =   1.4402m
 +1:n12164  =   1.4402m 1:n12165  =   1.4402m 1:n12166  =   1.4402m
 +1:n12167  =   1.4402m 1:n12168  =   1.4402m 1:n12169  =   1.4402m
 +1:n1217   =  33.0247p 1:n12170  =   1.4402m 1:n12171  =   1.4402m
 +1:n12172  =   1.4402m 1:n12173  =   1.4402m 1:n12174  =   1.4402m
 +1:n12175  =   1.4402m 1:n12176  =   1.4402m 1:n12177  =   1.4402m
 +1:n12178  =   1.4402m 1:n12179  =   1.4402m 1:n1218   =  33.0247p
 +1:n12180  =   1.4402m 1:n12181  =   1.4402m 1:n12182  =   1.4402m
 +1:n12183  =   1.4402m 1:n12184  =   1.4402m 1:n12185  =   1.4402m
 +1:n12186  =   1.4402m 1:n12187  =   1.4402m 1:n12188  =   1.4402m
 +1:n12189  =   1.4402m 1:n1219   =  33.0247p 1:n12190  =   1.4402m
 +1:n12191  =   1.4402m 1:n12192  =   1.4402m 1:n12193  =   1.4402m
 +1:n12194  =   1.4402m 1:n12195  =   1.4402m 1:n12196  =   1.4402m
 +1:n12197  =   1.4402m 1:n12198  =   1.4402m 1:n12199  =   1.4402m
 +1:n1220   =  33.0247p 1:n12200  =   1.4402m 1:n12201  =   1.4402m
 +1:n12202  =   1.4402m 1:n12203  =   1.4402m 1:n12204  =   1.4402m
 +1:n12205  =   1.4402m 1:n12206  =   1.4402m 1:n12207  =   1.4402m
 +1:n12208  =   1.4402m 1:n12209  =   1.4402m 1:n1221   =  33.0247p
 +1:n12210  =   1.4402m 1:n12211  =   1.4402m 1:n12212  =   1.4402m
 +1:n12213  =   1.4402m 1:n12214  =   1.4402m 1:n12215  =   1.4402m
 +1:n12216  =   1.4402m 1:n12217  =   1.4402m 1:n12218  =   1.4402m
 +1:n12219  =   1.4402m 1:n1222   =  33.0247p 1:n12220  =   1.4402m
 +1:n12221  =   1.4402m 1:n12222  =   1.4402m 1:n12223  =   1.4402m
 +1:n12224  =   1.4402m 1:n12225  =   1.4402m 1:n12226  =   1.4402m
 +1:n12227  =   1.4402m 1:n12228  =   1.4402m 1:n12229  =   1.4402m
 +1:n1223   =  33.0247p 1:n12230  =   1.4402m 1:n12231  =   1.4402m
 +1:n12232  =   1.4402m 1:n12233  =  12.9719m 1:n12234  =  12.9719m
 +1:n12235  =  12.9719m 1:n12236  =  12.9719m 1:n12237  =  12.9719m
 +1:n12238  =  12.9719m 1:n12239  =  12.9719m 1:n1224   =  33.0247p
 +1:n12240  =  12.9719m 1:n12241  =  12.9719m 1:n12242  =  12.9719m
 +1:n12243  =  12.9719m 1:n12244  =  12.9719m 1:n12245  =  12.9719m
 +1:n12246  =  12.9719m 1:n12247  =  12.9719m 1:n12248  =  12.9719m
 +1:n12249  =  12.9719m 1:n1225   =  33.0247p 1:n12250  =  12.9719m
 +1:n12251  =  12.9719m 1:n12252  =  12.9719m 1:n12253  =  12.9719m
 +1:n12254  =  12.9719m 1:n12255  =  12.9719m 1:n12256  =  12.9719m
 +1:n12257  =  12.9719m 1:n12258  =  12.9719m 1:n12259  =  12.9719m
 +1:n1226   =  33.0247p 1:n12260  =  12.9719m 1:n12261  =  12.9719m
 +1:n12262  =  12.9719m 1:n12263  =  12.9719m 1:n12264  =  12.9719m
 +1:n12265  =  12.9719m 1:n12266  =  12.9719m 1:n12267  =  12.9719m
 +1:n12268  =  12.9719m 1:n12269  =  12.9719m 1:n1227   =  33.0247p
 +1:n12270  =  12.9719m 1:n12271  =  12.9719m 1:n12272  =  12.9719m
 +1:n12273  =  12.9719m 1:n12274  =  12.9719m 1:n12275  =  12.9719m
 +1:n12276  =  12.9719m 1:n12277  =  12.9719m 1:n12278  =  12.9719m
 +1:n12279  =  12.9719m 1:n1228   =  33.0247p 1:n12280  =  12.9719m
 +1:n12281  =  12.9719m 1:n12282  =  12.9719m 1:n12283  =  12.9719m
 +1:n12284  =  12.9719m 1:n12285  =  12.9719m 1:n12286  =  12.9719m
 +1:n12287  =  12.9719m 1:n12288  =  12.9719m 1:n12289  =  12.9719m
 +1:n1229   =  33.0247p 1:n12290  =  12.9719m 1:n12291  =  12.9719m
 +1:n12292  =  12.9719m 1:n12293  =  12.9719m 1:n12294  =  12.9719m
 +1:n12295  =  12.9719m 1:n12296  =  12.9719m 1:n12297  =  12.9719m
 +1:n12298  =  12.9719m 1:n12299  =  12.9719m 1:n1230   =  33.0247p
 +1:n12300  =  12.9719m 1:n12301  =  12.9719m 1:n12302  =  12.9719m
 +1:n12303  =  12.9719m 1:n12304  =  12.9719m 1:n12305  =  12.9719m
 +1:n12306  =  12.9719m 1:n12307  =  12.9719m 1:n12308  =  12.9719m
 +1:n12309  =  12.9719m 1:n1231   =  33.0247p 1:n12310  =  12.9719m
 +1:n12311  =  12.9719m 1:n12312  =  12.9719m 1:n12313  =  12.9719m
 +1:n12314  =  12.9719m 1:n12315  =  12.9719m 1:n12316  =  12.9719m
 +1:n12317  =  12.9719m 1:n12318  =  12.9719m 1:n12319  =  12.9719m
 +1:n1232   =  33.0247p 1:n12320  =  12.9719m 1:n12321  =  12.9719m
 +1:n12322  =  12.9719m 1:n12323  =  12.9719m 1:n12324  =  12.9719m
 +1:n12325  =  12.9719m 1:n12326  =  12.9719m 1:n12327  =  12.9719m
 +1:n12328  =  12.9719m 1:n12329  =  12.9719m 1:n1233   =  33.0247p
 +1:n12330  =  12.9719m 1:n12331  =  12.9719m 1:n12332  =  12.9719m
 +1:n12333  =  12.9719m 1:n12334  =  12.9719m 1:n12335  =  12.9719m
 +1:n12336  =  12.9719m 1:n12337  =  12.9719m 1:n12338  =  12.9719m
 +1:n12339  =  12.9719m 1:n1234   =  33.0247p 1:n12340  =  12.9719m
 +1:n12341  =  12.9719m 1:n12342  =  12.9719m 1:n12343  =  12.9719m
 +1:n12344  =  12.9719m 1:n12345  =  12.9719m 1:n12346  =  12.9719m
 +1:n12347  =  12.9719m 1:n12348  =  12.9719m 1:n12349  =  12.9719m
 +1:n1235   =  33.0247p 1:n12350  =  12.9719m 1:n12351  =  12.9719m
 +1:n12352  =  12.9719m 1:n12353  =  12.9719m 1:n12354  =  12.9719m
 +1:n12355  =  12.9719m 1:n12356  =  12.9719m 1:n12357  =  12.9719m
 +1:n12358  =  12.9719m 1:n12359  =  12.9719m 1:n1236   =  33.0247p
 +1:n12360  =  12.9719m 1:n12361  =  12.9719m 1:n12362  =  12.9719m
 +1:n12363  =  12.9719m 1:n12364  =  12.9719m 1:n12365  =  12.9719m
 +1:n12366  =  12.9719m 1:n12367  =  12.9719m 1:n12368  =  12.9719m
 +1:n12369  =  12.9719m 1:n1237   =  33.0247p 1:n12370  =  12.9719m
 +1:n12371  =  12.9719m 1:n12372  =  12.9719m 1:n12373  =  12.9719m
 +1:n12374  =  12.9719m 1:n12375  =  12.9719m 1:n12376  =  12.9719m
 +1:n12377  =  12.9719m 1:n12378  =  12.9719m 1:n12379  =  12.9719m
 +1:n1238   =  33.0247p 1:n12380  =  12.9719m 1:n12381  =  12.9719m
 +1:n12382  =  12.9719m 1:n12383  =  12.9719m 1:n12384  =  12.9719m
 +1:n12385  =  12.9719m 1:n12386  =  12.9719m 1:n12387  =  12.9719m
 +1:n12388  =  12.9719m 1:n12389  =  12.9719m 1:n1239   =  33.0247p
 +1:n12390  =  12.9719m 1:n12391  =  12.9719m 1:n12392  =  12.9719m
 +1:n12393  =  12.9719m 1:n12394  =  12.9719m 1:n12395  =  12.9719m
 +1:n12396  =  12.9719m 1:n12397  =  12.9719m 1:n12398  =  12.9719m
 +1:n12399  =  12.9719m 1:n1240   =  33.0247p 1:n12400  =  12.9719m
 +1:n12401  =  12.9719m 1:n12402  =  12.9719m 1:n12403  =  12.9719m
 +1:n12404  =  12.9719m 1:n12405  =  12.9719m 1:n12406  =  12.9719m
 +1:n12407  =  12.9719m 1:n12408  =  12.9719m 1:n12409  =  12.9719m
 +1:n1241   =  33.0247p 1:n12410  =  12.9719m 1:n12411  =  12.9719m
 +1:n12412  =  12.9719m 1:n12413  =  12.9719m 1:n12414  =  12.9719m
 +1:n12415  =  12.9719m 1:n12416  =  12.9719m 1:n12417  =  12.9719m
 +1:n12418  =  12.9719m 1:n12419  =  12.9719m 1:n1242   =  33.0247p
 +1:n12420  =  12.9719m 1:n12421  =  12.9719m 1:n12422  =  12.9719m
 +1:n12423  =  12.9719m 1:n12424  =  12.9719m 1:n12425  =  12.9719m
 +1:n12426  =  12.9719m 1:n12427  =  12.9719m 1:n12428  =  12.9719m
 +1:n12429  =  12.9719m 1:n1243   =  33.0247p 1:n12430  =  12.9719m
 +1:n12431  =  12.9719m 1:n12432  =  12.9719m 1:n12433  =  12.9719m
 +1:n12434  =  12.9719m 1:n12435  =  12.9719m 1:n12436  =  12.9719m
 +1:n12437  =  12.9719m 1:n12438  =  12.9719m 1:n12439  =  12.9719m
 +1:n1244   =  33.0247p 1:n12440  =  12.9719m 1:n12441  =  12.9719m
 +1:n12442  =  12.9719m 1:n12443  =  12.9719m 1:n12444  =  12.9719m
 +1:n12445  =  12.9719m 1:n12446  =  12.9719m 1:n12447  =  12.9719m
 +1:n12448  =  12.9719m 1:n12449  =  12.5738m 1:n1245   =  33.0247p
 +1:n12450  =  12.5738m 1:n12451  =  12.5738m 1:n12452  =  12.5738m
 +1:n12453  =  12.5738m 1:n12454  =  12.5738m 1:n12455  =  12.5738m
 +1:n12456  =  12.5738m 1:n12457  =  12.5738m 1:n12458  =  12.5738m
 +1:n12459  =  12.5738m 1:n1246   =  33.0247p 1:n12460  =  12.5738m
 +1:n12461  =  12.5738m 1:n12462  =  12.5738m 1:n12463  =  12.5738m
 +1:n12464  =  12.5738m 1:n12465  =  12.5738m 1:n12466  =  12.5738m
 +1:n12467  =  12.5738m 1:n12468  =  12.5738m 1:n12469  =  12.5738m
 +1:n1247   =  33.0247p 1:n12470  =  12.5738m 1:n12471  =  12.5738m
 +1:n12472  =  12.5738m 1:n12473  =  12.5738m 1:n12474  =  12.5738m
 +1:n12475  =  12.5738m 1:n12476  =  12.5738m 1:n12477  =  12.5738m
 +1:n12478  =  12.5738m 1:n12479  =  12.5738m 1:n1248   =  33.0247p
 +1:n12480  =  12.5738m 1:n12481  =  12.5738m 1:n12482  =  12.5738m
 +1:n12483  =  12.5738m 1:n12484  =  12.5738m 1:n12485  =  12.5738m
 +1:n12486  =  12.5738m 1:n12487  =  12.5738m 1:n12488  =  12.5738m
 +1:n12489  =  12.5738m 1:n1249   =  33.0247p 1:n12490  =  12.5738m
 +1:n12491  =  12.5738m 1:n12492  =  12.5738m 1:n12493  =  12.5738m
 +1:n12494  =  12.5738m 1:n12495  =  12.5738m 1:n12496  =  12.5738m
 +1:n12497  =  12.5738m 1:n12498  =  12.5738m 1:n12499  =  12.5738m
 +1:n1250   =  33.0247p 1:n12500  =  12.5738m 1:n12501  =  12.5738m
 +1:n12502  =  12.5738m 1:n12503  =  12.5738m 1:n12504  =  12.5738m
 +1:n12505  =  12.5738m 1:n12506  =  12.5738m 1:n12507  =  12.5738m
 +1:n12508  =  12.5738m 1:n12509  =  12.5738m 1:n1251   =  33.0247p
 +1:n12510  =  12.5738m 1:n12511  =  12.5738m 1:n12512  =  12.5738m
 +1:n12513  =  12.5738m 1:n12514  =  12.5738m 1:n12515  =  12.5738m
 +1:n12516  =  12.5738m 1:n12517  =  12.5738m 1:n12518  =  12.5738m
 +1:n12519  =  12.5738m 1:n1252   =  33.0247p 1:n12520  =  12.5738m
 +1:n12521  =  12.5738m 1:n12522  =  12.5738m 1:n12523  =  12.5738m
 +1:n12524  =  12.5738m 1:n12525  =  12.5738m 1:n12526  =  12.5738m
 +1:n12527  =  12.5738m 1:n12528  =  12.5738m 1:n12529  =  12.5738m
 +1:n1253   =  33.0247p 1:n12530  =  12.5738m 1:n12531  =  12.5738m
 +1:n12532  =  12.5738m 1:n12533  =  12.5738m 1:n12534  =  12.5738m
 +1:n12535  =  12.5738m 1:n12536  =  12.5738m 1:n12537  =  12.5738m
 +1:n12538  =  12.5738m 1:n12539  =  12.5738m 1:n1254   =  33.0247p
 +1:n12540  =  12.5738m 1:n12541  =  12.5738m 1:n12542  =  12.5738m
 +1:n12543  =  12.5738m 1:n12544  =  12.5738m 1:n12545  =  12.5738m
 +1:n12546  =  12.5738m 1:n12547  =  12.5738m 1:n12548  =  12.5738m
 +1:n12549  =  12.5738m 1:n1255   =  33.0247p 1:n12550  =  12.5738m
 +1:n12551  =  12.5738m 1:n12552  =  12.5738m 1:n12553  =  12.5738m
 +1:n12554  =  12.5738m 1:n12555  =  12.5738m 1:n12556  =  12.5738m
 +1:n12557  =  12.5738m 1:n12558  =  12.5738m 1:n12559  =  12.5738m
 +1:n1256   =  33.0247p 1:n12560  =  12.5738m 1:n12561  =  12.5738m
 +1:n12562  =  12.5738m 1:n12563  =  12.5738m 1:n12564  =  12.5738m
 +1:n12565  =  12.5738m 1:n12566  =  12.5738m 1:n12567  =  12.5738m
 +1:n12568  =  12.5738m 1:n12569  =  12.5738m 1:n1257   =  33.0247p
 +1:n12570  =  12.5738m 1:n12571  =  12.5738m 1:n12572  =  12.5738m
 +1:n12573  =  12.5738m 1:n12574  =  12.5738m 1:n12575  =  12.5738m
 +1:n12576  =  12.5738m 1:n12577  =  12.5738m 1:n12578  =  12.5738m
 +1:n12579  =  12.5738m 1:n1258   =  33.0247p 1:n12580  =  12.5738m
 +1:n12581  =  12.5738m 1:n12582  =  12.5738m 1:n12583  =  12.5738m
 +1:n12584  =  12.5738m 1:n12585  =  12.5738m 1:n12586  =  12.5738m
 +1:n12587  =  12.5738m 1:n12588  =  12.5738m 1:n12589  =  12.5738m
 +1:n1259   =  33.0247p 1:n12590  =  12.5738m 1:n12591  =  12.5738m
 +1:n12592  =  12.5738m 1:n12593  =  12.5738m 1:n12594  =  12.5738m
 +1:n12595  =  12.5738m 1:n12596  =  12.5738m 1:n12597  =  12.5738m
 +1:n12598  =  12.5738m 1:n12599  =  12.5738m 1:n1260   =  33.0247p
 +1:n12600  =  12.5738m 1:n12601  =  12.5738m 1:n12602  =  12.5738m
 +1:n12603  =  12.5738m 1:n12604  =  12.5738m 1:n12605  =  12.5738m
 +1:n12606  =  12.5738m 1:n12607  =  12.5738m 1:n12608  =  12.5738m
 +1:n12609  =  12.5738m 1:n1261   =  33.0247p 1:n12610  =  12.5738m
 +1:n12611  =  12.5738m 1:n12612  =  12.5738m 1:n12613  =  12.5738m
 +1:n12614  =  12.5738m 1:n12615  =  12.5738m 1:n12616  =  12.5738m
 +1:n12617  =  12.5738m 1:n12618  =  12.5738m 1:n12619  =  12.5738m
 +1:n1262   =  33.0247p 1:n12620  =  12.5738m 1:n12621  =  12.5738m
 +1:n12622  =  12.5738m 1:n12623  =  12.5738m 1:n12624  =  12.5738m
 +1:n12625  =  12.5738m 1:n12626  =  12.5738m 1:n12627  =  12.5738m
 +1:n12628  =  12.5738m 1:n12629  =  12.5738m 1:n1263   =  33.0247p
 +1:n12630  =  12.5738m 1:n12631  =  12.5738m 1:n12632  =  12.5738m
 +1:n12633  =  12.5738m 1:n12634  =  12.5738m 1:n12635  =  12.5738m
 +1:n12636  =  12.5738m 1:n12637  =  12.5738m 1:n12638  =  12.5738m
 +1:n12639  =  12.5738m 1:n1264   =  33.0247p 1:n12640  =  12.5738m
 +1:n12641  =  12.5738m 1:n12642  =  12.5738m 1:n12643  =  12.5738m
 +1:n12644  =  12.5738m 1:n12645  =  12.5738m 1:n12646  =  12.5738m
 +1:n12647  =  12.5738m 1:n12648  =  12.5738m 1:n12649  =  12.5738m
 +1:n1265   =  33.0247p 1:n12650  =  12.5738m 1:n12651  =  12.5738m
 +1:n12652  =  12.5738m 1:n12653  =  12.5738m 1:n12654  =  12.5738m
 +1:n12655  =  12.5738m 1:n12656  =  12.5738m 1:n12657  =  12.5738m
 +1:n12658  =  12.5738m 1:n12659  =  12.5738m 1:n1266   =  33.0247p
 +1:n12660  =  12.5738m 1:n12661  =  12.5738m 1:n12662  =  12.5738m
 +1:n12663  =  12.5738m 1:n12664  =  12.5738m 1:n12665  =  12.5738m
 +1:n12666  =  12.5738m 1:n12667  =  12.5738m 1:n12668  =  12.5738m
 +1:n12669  =  12.5738m 1:n1267   =  33.0247p 1:n12670  =  12.5738m
 +1:n12671  =  12.5738m 1:n12672  =  12.5738m 1:n12673  =  12.5738m
 +1:n12674  =  12.5738m 1:n12675  =  12.5738m 1:n12676  =  12.5738m
 +1:n12677  =  12.5738m 1:n12678  =  12.5738m 1:n12679  =  12.5738m
 +1:n1268   =  33.0247p 1:n12680  =  12.5738m 1:n12681  =  12.5738m
 +1:n12682  =  12.5738m 1:n12683  =  12.5738m 1:n12684  =   7.7802m
 +1:n12685  =   7.7802m 1:n12686  =   7.7802m 1:n12687  =   7.7802m
 +1:n12688  =   7.7802m 1:n12689  =   7.7802m 1:n1269   =  33.0247p
 +1:n12690  =   7.7802m 1:n12691  =   7.7802m 1:n12692  =   7.7802m
 +1:n12693  =   7.7802m 1:n12694  =   7.7802m 1:n12695  =   7.7802m
 +1:n12696  =   7.7802m 1:n12697  =   7.7802m 1:n12698  =   7.7802m
 +1:n12699  =   7.7802m 1:n1270   =  33.0247p 1:n12700  =   7.7802m
 +1:n12701  =   7.7802m 1:n12702  =   7.7802m 1:n12703  =   7.7802m
 +1:n12704  =   7.7802m 1:n12705  =   7.7802m 1:n12706  =   7.7802m
 +1:n12707  =   7.7802m 1:n12708  =   7.7802m 1:n12709  =   7.7802m
 +1:n1271   =  33.0247p 1:n12710  =   7.7802m 1:n12711  =   7.7802m
 +1:n12712  =   7.7802m 1:n12713  =   7.7802m 1:n12714  =   7.7802m
 +1:n12715  =   7.7802m 1:n12716  =   7.7802m 1:n12717  =   7.7802m
 +1:n12718  =   7.7802m 1:n12719  =   7.7802m 1:n1272   =  33.0247p
 +1:n12720  =   7.7802m 1:n12721  =   7.7802m 1:n12722  =   7.7802m
 +1:n12723  =   7.7802m 1:n12724  =   7.7802m 1:n12725  =   7.7802m
 +1:n12726  =   7.7802m 1:n12727  =   7.7802m 1:n12728  =   7.7802m
 +1:n12729  =   7.7802m 1:n1273   =  33.0247p 1:n12730  =   7.7802m
 +1:n12731  =   7.7802m 1:n12732  =   7.7802m 1:n12733  =   7.7802m
 +1:n12734  =   7.7802m 1:n12735  =   7.7802m 1:n12736  =   7.7802m
 +1:n12737  =   7.7802m 1:n12738  =   7.7802m 1:n12739  =   7.7802m
 +1:n1274   =  33.0247p 1:n12740  =   7.7802m 1:n12741  =   7.7802m
 +1:n12742  =   7.7802m 1:n12743  =   7.7802m 1:n12744  =   7.7802m
 +1:n12745  =   7.7802m 1:n12746  =   7.7802m 1:n12747  =   7.7802m
 +1:n12748  =   7.7802m 1:n12749  =   7.7802m 1:n1275   =  33.0247p
 +1:n12750  =   7.7802m 1:n12751  =   7.7802m 1:n12752  =   7.7802m
 +1:n12753  =   7.7802m 1:n12754  =   7.7802m 1:n12755  =   7.7802m
 +1:n12756  =   7.7802m 1:n12757  =   7.7802m 1:n12758  =   7.7802m
 +1:n12759  =   7.7802m 1:n1276   =  33.0247p 1:n12760  =   7.7802m
 +1:n12761  =   7.7802m 1:n12762  =   7.7802m 1:n12763  =   7.7802m
 +1:n12764  =   7.7802m 1:n12765  =   7.7802m 1:n12766  =   7.7802m
 +1:n12767  =   7.7802m 1:n12768  =   7.7802m 1:n12769  =   7.7802m
 +1:n1277   =  33.0247p 1:n12770  =   7.7802m 1:n12771  =   7.7802m
 +1:n12772  =   7.7802m 1:n12773  =   7.7802m 1:n12774  =   7.7802m
 +1:n12775  =   7.7802m 1:n12776  =   7.7802m 1:n12777  =   7.7802m
 +1:n12778  =   7.7802m 1:n12779  =   7.7802m 1:n1278   =  33.0247p
 +1:n12780  =   7.7802m 1:n12781  =   7.7802m 1:n12782  =   7.7802m
 +1:n12783  =   7.7802m 1:n12784  =   7.7802m 1:n12785  =   7.7802m
 +1:n12786  =   7.7802m 1:n12787  =   7.7802m 1:n12788  =   7.7802m
 +1:n12789  =   7.7802m 1:n1279   =  33.0247p 1:n12790  =   7.7802m
 +1:n12791  =   7.7802m 1:n12792  =   7.7802m 1:n12793  =   7.7802m
 +1:n12794  =   7.7802m 1:n12795  =   7.7802m 1:n12796  =   7.7802m
 +1:n12797  =   7.7802m 1:n12798  =   7.7802m 1:n12799  =   7.7802m
 +1:n1280   =  33.0247p 1:n12800  =   7.7802m 1:n12801  =   7.7802m
 +1:n12802  =   7.7802m 1:n12803  =   7.7802m 1:n12804  =   7.7802m
 +1:n12805  =   7.7802m 1:n12806  =   7.7802m 1:n12807  =   7.7802m
 +1:n12808  =   7.7802m 1:n12809  =   7.7802m 1:n1281   =  33.0247p
 +1:n12810  =   7.7802m 1:n12811  =   7.7802m 1:n12812  =   7.7802m
 +1:n12813  =   7.7802m 1:n12814  =   7.7802m 1:n12815  =   7.7802m
 +1:n12816  =   7.7802m 1:n12817  =   7.7802m 1:n12818  =   7.7802m
 +1:n12819  =   7.7802m 1:n1282   =  40.9317p 1:n12820  =   7.7802m
 +1:n12821  =   7.7802m 1:n12822  =   7.7802m 1:n12823  =   7.7802m
 +1:n12824  =   7.7802m 1:n12825  =   7.7802m 1:n12826  =   7.7802m
 +1:n12827  =   7.7802m 1:n12828  =   7.7802m 1:n12829  =   7.7802m
 +1:n1283   =  40.9317p 1:n12830  =   7.7802m 1:n12831  =   7.7802m
 +1:n12832  =   7.7802m 1:n12833  =   7.7802m 1:n12834  =   7.7802m
 +1:n12835  =   7.7802m 1:n12836  =   7.7802m 1:n12837  =   7.7802m
 +1:n12838  =   7.7802m 1:n12839  =   7.7802m 1:n1284   =  40.9317p
 +1:n12840  =   7.7802m 1:n12841  =   7.7802m 1:n12842  =   7.7802m
 +1:n12843  =   7.7802m 1:n12844  =   7.7802m 1:n12845  =   7.7802m
 +1:n12846  =   7.7802m 1:n12847  =   7.7802m 1:n12848  =   7.7802m
 +1:n12849  =   7.7802m 1:n1285   =  40.9317p 1:n12850  =   7.7802m
 +1:n12851  =   7.7802m 1:n12852  =   7.7802m 1:n12853  =   7.7802m
 +1:n12854  =   7.7802m 1:n12855  =   7.7802m 1:n12856  =   7.7802m
 +1:n12857  =   7.7802m 1:n12858  =   7.7802m 1:n12859  =   7.7802m
 +1:n1286   =  40.9317p 1:n12860  =   7.7802m 1:n12861  =   7.7802m
 +1:n12862  =   7.7802m 1:n12863  =   7.7802m 1:n12864  =   7.7802m
 +1:n12865  =   7.7802m 1:n12866  =   7.7802m 1:n12867  =   7.7802m
 +1:n12868  =   7.7802m 1:n12869  =   7.7802m 1:n1287   =  40.9317p
 +1:n12870  =   7.7802m 1:n12871  =   7.7802m 1:n12872  =   7.7802m
 +1:n12873  =   7.7802m 1:n12874  =   7.7802m 1:n12875  =   7.7802m
 +1:n12876  =   7.7802m 1:n12877  =   7.7802m 1:n12878  =   7.7802m
 +1:n12879  =   7.7802m 1:n1288   =  40.9317p 1:n12880  =   7.7802m
 +1:n12881  =   7.7802m 1:n12882  =   7.7802m 1:n12883  =   7.7802m
 +1:n12884  =   7.7802m 1:n12885  =   7.7802m 1:n12886  =   7.7802m
 +1:n12887  =   7.7802m 1:n12888  =   7.7802m 1:n12889  =   7.7802m
 +1:n1289   =  40.9317p 1:n12890  =   7.7802m 1:n12891  =   7.7802m
 +1:n12892  =   7.7802m 1:n12893  =   7.7802m 1:n12894  =   7.7802m
 +1:n12895  =   7.7802m 1:n12896  =   7.7802m 1:n12897  =   7.7802m
 +1:n12898  =   7.7802m 1:n12899  =   7.7802m 1:n1290   =  40.9317p
 +1:n12900  =   7.7802m 1:n12901  =   7.7802m 1:n12902  =   7.7802m
 +1:n12903  =   7.7802m 1:n12904  =   7.7802m 1:n12905  =   7.7802m
 +1:n12906  =   3.4654m 1:n12907  =   3.4654m 1:n12908  =   3.4654m
 +1:n12909  =   3.4654m 1:n1291   =  40.9317p 1:n12910  =   3.4654m
 +1:n12911  =   3.4654m 1:n12912  =   3.4654m 1:n12913  =   3.4654m
 +1:n12914  =   3.4654m 1:n12915  =   3.4654m 1:n12916  =   3.4654m
 +1:n12917  =   3.4654m 1:n12918  =   3.4654m 1:n12919  =   3.4654m
 +1:n1292   =  40.9317p 1:n12920  =   3.4654m 1:n12921  =   3.4654m
 +1:n12922  =   3.4654m 1:n12923  =   3.4654m 1:n12924  =   3.4654m
 +1:n12925  =   3.4654m 1:n12926  =   3.4654m 1:n12927  =   3.4654m
 +1:n12928  =   3.4654m 1:n12929  =   3.4654m 1:n1293   =  40.9317p
 +1:n12930  =   3.4654m 1:n12931  =   3.4654m 1:n12932  =   3.4654m
 +1:n12933  =   3.4654m 1:n12934  =   3.4654m 1:n12935  =   3.4654m
 +1:n12936  =   3.4654m 1:n12937  =   3.4654m 1:n12938  =   3.4654m
 +1:n12939  =   3.4654m 1:n1294   =  40.9317p 1:n12940  =   3.4654m
 +1:n12941  =   3.4654m 1:n12942  =   3.4654m 1:n12943  =   3.4654m
 +1:n12944  =   3.4654m 1:n12945  =   3.4654m 1:n12946  =   3.4654m
 +1:n12947  =   3.4654m 1:n12948  =   3.4654m 1:n12949  =   3.4654m
 +1:n1295   =  40.9317p 1:n12950  =   3.4654m 1:n12951  =   3.4654m
 +1:n12952  =   3.4654m 1:n12953  =   3.4654m 1:n12954  =   3.4654m
 +1:n12955  =   3.4654m 1:n12956  =   3.4654m 1:n12957  =   3.4654m
 +1:n12958  =   3.4654m 1:n12959  =   3.4654m 1:n1296   =  40.9317p
 +1:n12960  =   3.4654m 1:n12961  =   3.4654m 1:n12962  =   3.4654m
 +1:n12963  =   3.4654m 1:n12964  =   3.4654m 1:n12965  =   3.4654m
 +1:n12966  =   3.4654m 1:n12967  =   3.4654m 1:n12968  =   3.4654m
 +1:n12969  =   3.4654m 1:n1297   =  40.9317p 1:n12970  =   3.4654m
 +1:n12971  =   3.4654m 1:n12972  =   3.4654m 1:n12973  =   3.4654m
 +1:n12974  =   3.4654m 1:n12975  =   3.4654m 1:n12976  =   3.4654m
 +1:n12977  =   3.4654m 1:n12978  =   3.4654m 1:n12979  =   3.4654m
 +1:n1298   =  40.9317p 1:n12980  =   3.4654m 1:n12981  =   3.4654m
[...]
 +1:n9264   =  10.5288m 1:n9265   =  10.5288m 1:n9266   =  10.5288m
 +1:n9267   =  10.5288m 1:n9268   =  10.5288m 1:n9269   =  10.5288m
 +1:n927    =  45.9612p 1:n9270   =  10.5288m 1:n9271   =  10.5288m
 +1:n9272   =  10.5288m 1:n9273   =  10.5288m 1:n9274   =  10.5288m
 +1:n9275   =  10.5288m 1:n9276   =  10.5288m 1:n9277   =  10.5288m
 +1:n9278   =  10.5288m 1:n9279   =  10.5288m 1:n928    =  45.9612p
 +1:n9280   =  10.5288m 1:n9281   =  10.5288m 1:n9282   =  10.5288m
 +1:n9283   =  10.5288m 1:n9284   =  10.5288m 1:n9285   =  10.5288m
 +1:n9286   =  10.5288m 1:n9287   =  10.5288m 1:n9288   =  10.5288m
 +1:n9289   =  10.5288m 1:n929    =  45.9612p 1:n9290   =  10.5288m
 +1:n9291   =  10.5288m 1:n9292   =  10.5288m 1:n9293   =  10.5288m
 +1:n9294   =  10.5288m 1:n9295   =  10.5288m 1:n9296   =  10.5288m
 +1:n9297   =  10.5288m 1:n9298   =  10.5288m 1:n9299   =  10.5288m
 +1:n930    =  45.9612p 1:n9300   =  10.5288m 1:n9301   =  10.5288m
 +1:n9302   =  10.5288m 1:n9303   =  10.5288m 1:n9304   =  10.5288m
 +1:n9305   =  10.5288m 1:n9306   =  10.5288m 1:n9307   =  10.5288m
 +1:n9308   =  10.5288m 1:n9309   =  10.5288m 1:n931    =  45.9612p
 +1:n9310   =  10.5288m 1:n9311   =  10.5288m 1:n9312   =  10.5288m
 +1:n9313   =  10.5288m 1:n9314   =  10.5288m 1:n9315   =  10.5288m
 +1:n9316   =  10.5288m 1:n9317   =  10.5288m 1:n9318   =  10.5288m
 +1:n9319   =  10.5288m 1:n932    =  45.9612p 1:n9320   =  10.5288m
 +1:n9321   =  10.5288m 1:n9322   =  10.5288m 1:n9323   =  10.5288m
 +1:n9324   =  10.5288m 1:n9325   =  10.5288m 1:n9326   =   8.9954m
 +1:n9327   =   8.9954m 1:n9328   =   8.9954m 1:n9329   =   8.9954m
 +1:n933    =  45.9612p 1:n9330   =   8.9954m 1:n9331   =   8.9954m
 +1:n9332   =   8.9954m 1:n9333   =   8.9954m 1:n9334   =   8.9954m
 +1:n9335   =   8.9954m 1:n9336   =   8.9954m 1:n9337   =   8.9954m
 +1:n9338   =   8.9954m 1:n9339   =   8.9954m 1:n934    =  45.9612p
 +1:n9340   =   8.9954m 1:n9341   =   8.9954m 1:n9342   =   8.9954m
 +1:n9343   =   8.9954m 1:n9344   =   8.9954m 1:n9345   =   8.9954m
 +1:n9346   =   8.9954m 1:n9347   =   8.9954m 1:n9348   =   8.9954m
 +1:n9349   =   8.9954m 1:n935    =  45.9612p 1:n9350   =   8.9954m
 +1:n9351   =   8.9954m 1:n9352   =   8.9954m 1:n9353   =   8.9954m
 +1:n9354   =   8.9954m 1:n9355   =   8.9954m 1:n9356   =   8.9954m
 +1:n9357   =   8.9954m 1:n9358   =   8.9954m 1:n9359   =   8.9954m
 +1:n936    =  45.9612p 1:n9360   =   8.9954m 1:n9361   =   8.9954m
 +1:n9362   =   8.9954m 1:n9363   =   8.9954m 1:n9364   =   8.9954m
 +1:n9365   =   8.9954m 1:n9366   =   8.9954m 1:n9367   =   8.9954m
 +1:n9368   =   8.9954m 1:n9369   =   8.9954m 1:n937    =  45.9612p
 +1:n9370   =   8.9954m 1:n9371   =   8.9954m 1:n9372   =   8.9954m
 +1:n9373   =   8.9954m 1:n9374   =   8.9954m 1:n9375   =   8.9954m
 +1:n9376   =   8.9954m 1:n9377   =   8.9954m 1:n9378   =   8.9954m
 +1:n9379   =   8.9954m 1:n938    =  45.9612p 1:n9380   =   8.9954m
 +1:n9381   =   8.9954m 1:n9382   =   8.9954m 1:n9383   =   8.9954m
 +1:n9384   =   8.9954m 1:n9385   =   8.9954m 1:n9386   =   8.9954m
 +1:n9387   =   8.9954m 1:n9388   =   8.9954m 1:n9389   =   8.9954m
 +1:n939    =  45.9612p 1:n9390   =   8.9954m 1:n9391   =   8.9954m
 +1:n9392   =   8.9954m 1:n9393   =   8.9954m 1:n9394   =   8.9954m
 +1:n9395   =   8.9954m 1:n9396   =   8.9954m 1:n9397   =   8.9954m
 +1:n9398   =   8.9954m 1:n9399   =   8.9954m 1:n940    =  31.7288p
 +1:n9400   =   8.9954m 1:n9401   =   8.9954m 1:n9402   =   8.9954m
 +1:n9403   =   8.9954m 1:n9404   =   8.9954m 1:n9405   =   8.9954m
 +1:n9406   =   8.9954m 1:n9407   =   8.9954m 1:n9408   =   8.9954m
 +1:n9409   =   8.9954m 1:n941    =  31.7288p 1:n9410   =   8.9954m
 +1:n9411   =   8.9954m 1:n9412   =   8.9954m 1:n9413   =   8.9954m
 +1:n9414   =   8.9954m 1:n9415   =   8.9954m 1:n9416   =   8.9954m
 +1:n9417   =   8.9954m 1:n9418   =   8.9954m 1:n9419   =   8.9954m
 +1:n942    =  31.7288p 1:n9420   =   8.9954m 1:n9421   =   8.9954m
 +1:n9422   =   8.9954m 1:n9423   =   8.9954m 1:n9424   =   8.9954m
 +1:n9425   =   8.9954m 1:n9426   =   8.9954m 1:n9427   =   8.9954m
 +1:n9428   =   8.9954m 1:n9429   =   8.9954m 1:n943    =  31.7288p
 +1:n9430   =   8.9954m 1:n9431   =   8.9954m 1:n9432   =   8.9954m
 +1:n9433   =   8.9954m 1:n9434   =   8.9954m 1:n9435   =   8.9954m
 +1:n9436   =   8.9954m 1:n9437   =   8.9954m 1:n9438   =   8.9954m
 +1:n9439   =   8.9954m 1:n944    =  31.7288p 1:n9440   =   8.9954m
 +1:n9441   =   8.9954m 1:n9442   =   8.9954m 1:n9443   =   8.9954m
 +1:n9444   =   8.9954m 1:n9445   =   8.9954m 1:n9446   =   8.9954m
 +1:n9447   =   8.9954m 1:n9448   =   8.9954m 1:n9449   =   8.9954m
 +1:n945    =  31.7288p 1:n9450   =   8.9954m 1:n9451   =   8.9954m
 +1:n9452   =   8.9954m 1:n9453   =   8.9954m 1:n9454   =   8.9954m
 +1:n9455   =   8.9954m 1:n9456   =   8.9954m 1:n9457   =   8.9954m
 +1:n9458   =   8.9954m 1:n9459   =   8.9954m 1:n946    =  31.7288p
 +1:n9460   =   8.9954m 1:n9461   =   8.9954m 1:n9462   =   8.9954m
 +1:n9463   =   8.9954m 1:n9464   =   8.9954m 1:n9465   =   8.9954m
 +1:n9466   =   8.9954m 1:n9467   =   8.9954m 1:n9468   =   8.9954m
 +1:n9469   =   8.9954m 1:n947    =  31.7288p 1:n9470   =   8.9954m
 +1:n9471   =   8.9954m 1:n9472   =   8.9954m 1:n9473   =   8.9954m
 +1:n9474   =   8.9954m 1:n9475   =   8.9954m 1:n9476   =   8.9954m
 +1:n9477   =   8.9954m 1:n9478   =   8.9954m 1:n9479   =   8.9954m
 +1:n948    =  31.7288p 1:n9480   =   8.9954m 1:n9481   =   8.9954m
 +1:n9482   =   8.9954m 1:n9483   =   8.9954m 1:n9484   =   8.9954m
 +1:n9485   =   8.9954m 1:n9486   =   8.9954m 1:n9487   =   8.9954m
 +1:n9488   =   8.9954m 1:n9489   =   8.9954m 1:n949    =  31.7288p
 +1:n9490   =   8.9954m 1:n9491   =   8.9954m 1:n9492   =   8.9954m
 +1:n9493   =   8.9954m 1:n9494   =   8.9954m 1:n9495   =   8.9954m
 +1:n9496   =   8.9954m 1:n9497   =   8.9954m 1:n9498   =   8.9954m
 +1:n9499   =   8.9954m 1:n950    =  31.7288p 1:n9500   =   8.9954m
 +1:n9501   =   8.9954m 1:n9502   =   8.9954m 1:n9503   =   8.9954m
 +1:n9504   =   8.9954m 1:n9505   =   8.9954m 1:n9506   =   8.9954m
 +1:n9507   =   8.9954m 1:n9508   =   8.9954m 1:n9509   =   8.9954m
 +1:n951    =  31.7288p 1:n9510   =   8.9954m 1:n9511   =   8.9954m
 +1:n9512   =   8.9954m 1:n9513   =   8.9954m 1:n9514   =   8.9954m
 +1:n9515   =  41.3415m 1:n9516   =  41.3415m 1:n9517   =  41.3415m
 +1:n9518   =  41.3415m 1:n9519   =  41.3415m 1:n952    =  31.7288p
 +1:n9520   =  41.3415m 1:n9521   =  41.3415m 1:n9522   =  41.3415m
 +1:n9523   =  41.3415m 1:n9524   =  41.3415m 1:n9525   =  41.3415m
 +1:n9526   =  41.3415m 1:n9527   =  41.3415m 1:n9528   =  41.3415m
 +1:n9529   =  41.3415m 1:n953    =  31.7288p 1:n9530   =  41.3415m
 +1:n9531   =  41.3415m 1:n9532   =  41.3415m 1:n9533   =  41.3415m
 +1:n9534   =  41.3415m 1:n9535   =  41.3415m 1:n9536   =  41.3415m
 +1:n9537   =  41.3415m 1:n9538   =  41.3415m 1:n9539   =  41.3415m
 +1:n954    =  31.7288p 1:n9540   =  41.3415m 1:n9541   =  41.3415m
 +1:n9542   =  41.3415m 1:n9543   =  41.3415m 1:n9544   =  41.3415m
 +1:n9545   =  41.3415m 1:n9546   =  41.3415m 1:n9547   =  41.3415m
 +1:n9548   =  41.3415m 1:n9549   =  41.3415m 1:n955    =  31.7288p
 +1:n9550   =  41.3415m 1:n9551   =  41.3415m 1:n9552   =  41.3415m
 +1:n9553   =  41.3415m 1:n9554   =  41.3415m 1:n9555   =  41.3415m
 +1:n9556   =  41.3415m 1:n9557   =  41.3415m 1:n9558   =  41.3415m
 +1:n9559   =  41.3415m 1:n956    =  31.7288p 1:n9560   =  41.3415m
 +1:n9561   =  41.3415m 1:n9562   =  41.3415m 1:n9563   =  41.3415m
 +1:n9564   =  41.3415m 1:n9565   =  41.3415m 1:n9566   =  41.3415m
 +1:n9567   =  41.3415m 1:n9568   =  41.3415m 1:n9569   =  41.3415m
 +1:n957    =  31.7288p 1:n9570   =  41.3415m 1:n9571   =  41.3415m
 +1:n9572   =  41.3415m 1:n9573   =  41.3415m 1:n9574   =  41.3415m
 +1:n9575   =  41.3415m 1:n9576   =  41.3415m 1:n9577   =  41.3415m
 +1:n9578   =  41.3415m 1:n9579   =  41.3415m 1:n958    =  31.7288p
 +1:n9580   =  41.3415m 1:n9581   =  41.3415m 1:n9582   =  41.3415m
 +1:n9583   =  41.3415m 1:n9584   =  41.3415m 1:n9585   =  41.3415m
 +1:n9586   =  41.3415m 1:n9587   =  41.3415m 1:n9588   =  41.3415m
 +1:n9589   =  41.3415m 1:n959    =  31.7288p 1:n9590   =  41.3415m
 +1:n9591   =  41.3415m 1:n9592   =  41.3415m 1:n9593   =  41.3415m
 +1:n9594   =  41.3415m 1:n9595   =  41.3415m 1:n9596   =  41.3415m
 +1:n9597   =  41.3415m 1:n9598   =  41.3415m 1:n9599   =  41.3415m
 +1:n960    =  31.7288p 1:n9600   =  41.3415m 1:n9601   =  41.3415m
 +1:n9602   =  41.3415m 1:n9603   =  41.3415m 1:n9604   =  41.3415m
 +1:n9605   =  41.3415m 1:n9606   =  41.3415m 1:n9607   =  41.3415m
 +1:n9608   =  41.3415m 1:n9609   =  41.3415m 1:n961    =  31.7288p
 +1:n9610   =  41.3415m 1:n9611   =  41.3415m 1:n9612   =  41.3415m
 +1:n9613   =  41.3415m 1:n9614   =  41.3415m 1:n9615   =  41.3415m
 +1:n9616   =  41.3415m 1:n9617   =  41.3415m 1:n9618   =  41.3415m
 +1:n9619   =  41.3415m 1:n962    =  31.7288p 1:n9620   =  41.3415m
 +1:n9621   =  41.3415m 1:n9622   =  41.3415m 1:n9623   =  41.3415m
 +1:n9624   =  41.3415m 1:n9625   =  41.3415m 1:n9626   =  41.3415m
 +1:n9627   =  41.3415m 1:n9628   =  41.3415m 1:n9629   =  41.3415m
 +1:n963    =  31.7288p 1:n9630   =  41.3415m 1:n9631   =  41.3415m
 +1:n9632   =  41.3415m 1:n9633   =  41.3415m 1:n9634   =  41.3415m
 +1:n9635   =  41.3415m 1:n9636   =  41.3415m 1:n9637   =  41.3415m
 +1:n9638   =  41.3415m 1:n9639   =  41.3415m 1:n964    =  31.7288p
 +1:n9640   =  41.3415m 1:n9641   =  41.3415m 1:n9642   =  41.3415m
 +1:n9643   =  41.3415m 1:n9644   =  41.3415m 1:n9645   =  41.3415m
 +1:n9646   =  41.3415m 1:n9647   =  41.3415m 1:n9648   =  41.3415m
 +1:n9649   =  41.3415m 1:n965    =  31.7288p 1:n9650   =  41.3415m
 +1:n9651   =  41.3415m 1:n9652   =  41.3415m 1:n9653   =  41.3415m
 +1:n9654   =  41.3415m 1:n9655   =  41.3415m 1:n9656   =  41.3415m
 +1:n9657   =  41.3415m 1:n9658   =  41.3415m 1:n9659   =  41.3415m
 +1:n966    =  31.7288p 1:n9660   =  41.3415m 1:n9661   =  41.3415m
 +1:n9662   =  41.3415m 1:n9663   =  41.3415m 1:n9664   =  41.3415m
 +1:n9665   =  41.3415m 1:n9666   =  41.3415m 1:n9667   =  41.3415m
 +1:n9668   =  41.3415m 1:n9669   =  41.3415m 1:n967    =  31.7288p
 +1:n9670   =  41.3415m 1:n9671   =  41.3415m 1:n9672   =  41.3415m
 +1:n9673   =  41.3415m 1:n9674   =  41.3415m 1:n9675   =  41.3415m
 +1:n9676   =  41.3415m 1:n9677   =  41.3415m 1:n9678   =  41.3415m
 +1:n9679   =  41.3415m 1:n968    =  31.7288p 1:n9680   =  41.3415m
 +1:n9681   =  41.3415m 1:n9682   =  41.3415m 1:n9683   =  41.3415m
 +1:n9684   =  41.3415m 1:n9685   =  41.3415m 1:n9686   =  41.3415m
 +1:n9687   =  41.3415m 1:n9688   =  41.3415m 1:n9689   =  41.3415m
 +1:n969    =  31.7288p 1:n9690   =  41.3415m 1:n9691   =  41.3415m
 +1:n9692   =  41.3415m 1:n9693   =  41.3415m 1:n9694   =  41.3415m
 +1:n9695   =  41.3415m 1:n9696   =  41.3415m 1:n9697   =  41.3415m
 +1:n9698   =  41.3415m 1:n9699   =  41.3415m 1:n970    =  31.7288p
 +1:n9700   =  41.3415m 1:n9701   =  41.3415m 1:n9702   =  41.3415m
 +1:n9703   =  41.3415m 1:n9704   =  29.4338m 1:n9705   =  29.4338m
 +1:n9706   =  29.4338m 1:n9707   =  29.4338m 1:n9708   =  29.4338m
 +1:n9709   =  29.4338m 1:n971    =  31.7288p 1:n9710   =  29.4338m
 +1:n9711   =  29.4338m 1:n9712   =  29.4338m 1:n9713   =  29.4338m
 +1:n9714   =  29.4338m 1:n9715   =  29.4338m 1:n9716   =  29.4338m
 +1:n9717   =  29.4338m 1:n9718   =  29.4338m 1:n9719   =  29.4338m
 +1:n972    =  31.7288p 1:n9720   =  29.4338m 1:n9721   =  29.4338m
 +1:n9722   =  29.4338m 1:n9723   =  29.4338m 1:n9724   =  29.4338m
 +1:n9725   =  29.4338m 1:n9726   =  29.4338m 1:n9727   =  29.4338m
 +1:n9728   =  29.4338m 1:n9729   =  29.4338m 1:n973    =  31.7288p
 +1:n9730   =  29.4338m 1:n9731   =  29.4338m 1:n9732   =  29.4338m
 +1:n9733   =  29.4338m 1:n9734   =  29.4338m 1:n9735   =  29.4338m
 +1:n9736   =  29.4338m 1:n9737   =  29.4338m 1:n9738   =  29.4338m
 +1:n9739   =  29.4338m 1:n974    =  31.7288p 1:n9740   =  29.4338m
 +1:n9741   =  29.4338m 1:n9742   =  29.4338m 1:n9743   =  29.4338m
 +1:n9744   =  29.4338m 1:n9745   =  29.4338m 1:n9746   =  29.4338m
 +1:n9747   =  29.4338m 1:n9748   =  29.4338m 1:n9749   =  29.4338m
 +1:n975    =  31.7288p 1:n9750   =  29.4338m 1:n9751   =  29.4338m
 +1:n9752   =  29.4338m 1:n9753   =  29.4338m 1:n9754   =  29.4338m
 +1:n9755   =  29.4338m 1:n9756   =  29.4338m 1:n9757   =  29.4338m
 +1:n9758   =  29.4338m 1:n9759   =  29.4338m 1:n976    =  31.7288p
 +1:n9760   =  29.4338m 1:n9761   =  29.4338m 1:n9762   =  29.4338m
 +1:n9763   =  29.4338m 1:n9764   =  29.4338m 1:n9765   =  29.4338m
 +1:n9766   =  29.4338m 1:n9767   =  29.4338m 1:n9768   =  29.4338m
 +1:n9769   =  29.4338m 1:n977    =  31.7288p 1:n9770   =  29.4338m
 +1:n9771   =  29.4338m 1:n9772   =  29.4338m 1:n9773   =  29.4338m
 +1:n9774   =  29.4338m 1:n9775   =  29.4338m 1:n9776   =  29.4338m
 +1:n9777   =  29.4338m 1:n9778   =  29.4338m 1:n9779   =  29.4338m
 +1:n978    =  31.7288p 1:n9780   =  29.4338m 1:n9781   =  29.4338m
 +1:n9782   =  29.4338m 1:n9783   =  29.4338m 1:n9784   =  29.4338m
 +1:n9785   =  29.4338m 1:n9786   =  29.4338m 1:n9787   =  29.4338m
 +1:n9788   =  29.4338m 1:n9789   =  29.4338m 1:n979    =  31.7288p
 +1:n9790   =  29.4338m 1:n9791   =  29.4338m 1:n9792   =  29.4338m
 +1:n9793   =  29.4338m 1:n9794   =  29.4338m 1:n9795   =  29.4338m
 +1:n9796   =  29.4338m 1:n9797   =  29.4338m 1:n9798   =  29.4338m
 +1:n9799   =  29.4338m 1:n980    =  31.7288p 1:n9800   =  29.4338m
 +1:n9801   =  29.4338m 1:n9802   =  29.4338m 1:n9803   =  29.4338m
 +1:n9804   =  29.4338m 1:n9805   =  29.4338m 1:n9806   =  29.4338m
 +1:n9807   =  29.4338m 1:n9808   =  29.4338m 1:n9809   =  29.4338m
 +1:n981    =  31.7288p 1:n9810   =  29.4338m 1:n9811   =  29.4338m
 +1:n9812   =  29.4338m 1:n9813   =  29.4338m 1:n9814   =  29.4338m
 +1:n9815   =  29.4338m 1:n9816   =  29.4338m 1:n9817   =  29.4338m
 +1:n9818   =  29.4338m 1:n9819   =  29.4338m 1:n982    =  31.7288p
 +1:n9820   =  29.4338m 1:n9821   =  29.4338m 1:n9822   =  29.4338m
 +1:n9823   =  29.4338m 1:n9824   =  29.4338m 1:n9825   =  29.4338m
 +1:n9826   =  29.4338m 1:n9827   =  29.4338m 1:n9828   =  29.4338m
 +1:n9829   =  29.4338m 1:n983    =  31.7288p 1:n9830   =  29.4338m
 +1:n9831   =  29.4338m 1:n9832   =  29.4338m 1:n9833   =  29.4338m
 +1:n9834   =  29.4338m 1:n9835   =  29.4338m 1:n9836   =  29.4338m
 +1:n9837   =  29.4338m 1:n9838   =  29.4338m 1:n9839   =  29.4338m
 +1:n984    =  31.7288p 1:n9840   =  29.4338m 1:n9841   =  29.4338m
 +1:n9842   =  29.4338m 1:n9843   =  29.4338m 1:n9844   =  29.4338m
 +1:n9845   =  29.4338m 1:n9846   =  29.4338m 1:n9847   =  29.4338m
 +1:n9848   =  29.4338m 1:n9849   =  29.4338m 1:n985    =  31.7288p
 +1:n9850   =  29.4338m 1:n9851   =  29.4338m 1:n9852   =  29.4338m
 +1:n9853   =  29.4338m 1:n9854   =  29.4338m 1:n9855   =  29.4338m
 +1:n9856   =  29.4338m 1:n9857   =  29.4338m 1:n9858   =  29.4338m
 +1:n9859   =  29.4338m 1:n986    =  31.7288p 1:n9860   =  29.4338m
 +1:n9861   =  29.4338m 1:n9862   =  29.4338m 1:n9863   =  29.4338m
 +1:n9864   =  29.4338m 1:n9865   =  29.4338m 1:n9866   =  29.4338m
 +1:n9867   =  29.4338m 1:n9868   =  29.4338m 1:n9869   =  29.4338m
 +1:n987    =  31.7288p 1:n9870   =  29.4338m 1:n9871   =  29.4338m
 +1:n9872   =  29.4338m 1:n9873   =  29.4338m 1:n9874   =  29.4338m
 +1:n9875   =  29.4338m 1:n9876   =  29.4338m 1:n9877   =  29.4338m
 +1:n9878   =  29.4338m 1:n9879   =  29.4338m 1:n988    =  31.7288p
 +1:n9880   =  29.4338m 1:n9881   =  29.4338m 1:n9882   =  29.4338m
 +1:n9883   =  29.4338m 1:n9884   =  29.4338m 1:n9885   =  29.4338m
 +1:n9886   =  29.4338m 1:n9887   =  29.4338m 1:n9888   =  29.4338m
 +1:n9889   =  29.4338m 1:n989    =  31.7288p 1:n9890   =  29.4338m
 +1:n9891   =  29.4338m 1:n9892   =  29.4338m 1:n9893   =  29.4338m
 +1:n9894   =  29.4338m 1:n9895   =  29.4338m 1:n9896   =  29.4338m
 +1:n9897   =  29.4338m 1:n9898   =  18.6304m 1:n9899   =  18.6304m
 +1:n990    =  31.7288p 1:n9900   =  18.6304m 1:n9901   =  18.6304m
 +1:n9902   =  18.6304m 1:n9903   =  18.6304m 1:n9904   =  18.6304m
 +1:n9905   =  18.6304m 1:n9906   =  18.6304m 1:n9907   =  18.6304m
 +1:n9908   =  18.6304m 1:n9909   =  18.6304m 1:n991    =  31.7288p
 +1:n9910   =  18.6304m 1:n9911   =  18.6304m 1:n9912   =  18.6304m
 +1:n9913   =  18.6304m 1:n9914   =  18.6304m 1:n9915   =  18.6304m
 +1:n9916   =  18.6304m 1:n9917   =  18.6304m 1:n9918   =  18.6304m
 +1:n9919   =  18.6304m 1:n992    =  31.7288p 1:n9920   =  18.6304m
 +1:n9921   =  18.6304m 1:n9922   =  18.6304m 1:n9923   =  18.6304m
 +1:n9924   =  18.6304m 1:n9925   =  18.6304m 1:n9926   =  18.6304m
 +1:n9927   =  18.6304m 1:n9928   =  18.6304m 1:n9929   =  18.6304m
 +1:n993    =  31.7288p 1:n9930   =  18.6304m 1:n9931   =  18.6304m
 +1:n9932   =  18.6304m 1:n9933   =  18.6304m 1:n9934   =  18.6304m
 +1:n9935   =  18.6304m 1:n9936   =  18.6304m 1:n9937   =  18.6304m
 +1:n9938   =  18.6304m 1:n9939   =  18.6304m 1:n994    =  31.7288p
 +1:n9940   =  18.6304m 1:n9941   =  18.6304m 1:n9942   =  18.6304m
 +1:n9943   =  18.6304m 1:n9944   =  18.6304m 1:n9945   =  18.6304m
 +1:n9946   =  18.6304m 1:n9947   =  18.6304m 1:n9948   =  18.6304m
 +1:n9949   =  18.6304m 1:n995    =  31.7288p 1:n9950   =  18.6304m
 +1:n9951   =  18.6304m 1:n9952   =  18.6304m 1:n9953   =  18.6304m
 +1:n9954   =  18.6304m 1:n9955   =  18.6304m 1:n9956   =  18.6304m
 +1:n9957   =  18.6304m 1:n9958   =  18.6304m 1:n9959   =  18.6304m
 +1:n996    =  31.7288p 1:n9960   =  18.6304m 1:n9961   =  18.6304m
 +1:n9962   =  18.6304m 1:n9963   =  18.6304m 1:n9964   =  18.6304m
 +1:n9965   =  18.6304m 1:n9966   =  18.6304m 1:n9967   =  18.6304m
 +1:n9968   =  18.6304m 1:n9969   =  18.6304m 1:n997    =  31.7288p
 +1:n9970   =  18.6304m 1:n9971   =  18.6304m 1:n9972   =  18.6304m
 +1:n9973   =  18.6304m 1:n9974   =  18.6304m 1:n9975   =  18.6304m
 +1:n9976   =  18.6304m 1:n9977   =  18.6304m 1:n9978   =  18.6304m
 +1:n9979   =  18.6304m 1:n998    =  31.7288p 1:n9980   =  18.6304m
 +1:n9981   =  18.6304m 1:n9982   =  18.6304m 1:n9983   =  18.6304m
 +1:n9984   =  18.6304m 1:n9985   =  18.6304m 1:n9986   =  18.6304m
 +1:n9987   =  18.6304m 1:n9988   =  18.6304m 1:n9989   =  18.6304m
 +1:n999    =  31.7288p 1:n9990   =  18.6304m 1:n9991   =  18.6304m
 +1:n9992   =  18.6304m 1:n9993   =  18.6304m 1:n9994   =  18.6304m
 +1:n9995   =  18.6304m 1:n9996   =  18.6304m 1:n9997   =  18.6304m
 +1:n9998   =  18.6304m 1:n9999   =  18.6304m


          ***** job concluded
1****** HSPICE -- F-2011.09 32-BIT (Sep  5 2011) winnt ******                   
 ******  
 #current calculation test

  ******  job statistics summary tnom=  25.000 temp=  25.000 *****

  ******  HSPICE Threads Information  ******

  Command Line Threads Count :     1
  Available CPU Count        :     8
  Actual Threads Count       :     1


  ******  Circuit Statistics  ******
  # nodes       =   16758 # elements   =   44955
  # resistors   =   20710 # capacitors =   14997 # inductors   =    6402
  # mutual_inds =       0 # vccs       =    2810 # vcvs        =       0
  # cccs        =       0 # ccvs       =       0 # volt_srcs   =      36
  # curr_srcs   =       0 # diodes     =       0 # bjts        =       0
  # jfets       =       0 # mosfets    =       0 # U elements  =       0
  # T elements  =       0 # W elements =       0 # B elements  =       0
  # S elements  =       0 # P elements =       0 # va device   =       0
  # vector_srcs =       0


  ******  Runtime Statistics (seconds)  ******

  analysis           time    # points   tot. iter  conv.iter
  op point           0.68           1           4
  transient          1.17         751         203          72 rev=         7
  readin             3.44
  errchk             0.24
  setup              0.46
  output             0.00


           peak memory used        109.38 megabytes
           total cpu time            5.71 seconds
           total elapsed time        6.80 seconds
           job started at     14:37:48 01/30/2022
           job ended   at     14:37:54 01/30/2022


  lic: Release hspice token(s) 
